@<TRIPOS>MOLECULE
chlorophyll a (CLA)
137 145 1 0 0
SMALL
NO_CHARGES


@<TRIPOS>ATOM
      1 MG         2.0382      -2.8650      -1.8781 Mg          1 CLA      0.0000
      2 CHA        2.8035      -2.1726      -5.1468 C.ar        1 CLA      0.0000
      3 CHB        5.0390      -1.5956      -0.9129 C.ar        1 CLA      0.0000
      4 CHC        1.0325      -3.1463       1.3797 C.ar        1 CLA      0.0000
      5 CHD       -1.1099      -4.0124      -2.9250 C.ar        1 CLA      0.0000
      6 NA         3.6780      -2.1044      -2.8955 N.ar        1 CLA      0.0000
      7 C1A        3.7841      -1.8619      -4.2593 C.ar        1 CLA      0.0000
      8 C2A        5.1347      -1.2622      -4.5980 C.3         1 CLA      0.0000
      9 C3A        5.9137      -1.4087      -3.2853 C.3         1 CLA      0.0000
     10 C4A        4.8178      -1.7148      -2.2700 C.ar        1 CLA      0.0000
     11 CMA        6.8637      -2.5618      -3.4231 C.3         1 CLA      0.0000
     12 CAA        4.9629       0.1999      -4.9556 C.3         1 CLA      0.0000
     13 CBA        3.9383       0.8996      -4.0868 C.3         1 CLA      0.0000
     14 CGA        4.5732       1.3287      -2.7993 C.2         1 CLA      0.0000
     15 O1A        5.7124       1.7582      -2.6228 O.2         1 CLA      0.0000
     16 O2A        3.7667       1.2049      -1.7028 O.3         1 CLA      0.0000
     17 NB         2.8518      -2.4019      -0.1110 N.ar        1 CLA      0.0000
     18 C1B        4.0918      -1.9073       0.0775 C.ar        1 CLA      0.0000
     19 C2B        4.3599      -1.8021       1.5298 C.2         1 CLA      0.0000
     20 C3B        3.2370      -2.2364       2.1879 C.2         1 CLA      0.0000
     21 C4B        2.2685      -2.6405       1.1468 C.ar        1 CLA      0.0000
     22 CMB        5.6410      -1.3356       2.0233 C.3         1 CLA      0.0000
     23 CAB        2.9249      -2.3671       3.5797 C.2         1 CLA      0.0000
     24 CBB        3.4476      -1.6493       4.5637 C.2         1 CLA      0.0000
     25 NC         0.3181      -3.5606      -0.9478 N.ar        1 CLA      0.0000
     26 C1C        0.1278      -3.6174       0.3957 C.ar        1 CLA      0.0000
     27 C2C       -1.1987      -4.1342       0.6821 C.ar        1 CLA      0.0000
     28 C3C       -1.8129      -4.3397      -0.5360 C.ar        1 CLA      0.0000
     29 C4C       -0.8579      -3.9738      -1.5543 C.ar        1 CLA      0.0000
     30 CMC       -1.7685      -4.3494       2.0017 C.3         1 CLA      0.0000
     31 CAC       -3.1701      -4.8367      -0.7645 C.3         1 CLA      0.0000
     32 CBC       -4.1396      -3.6942      -0.9204 C.3         1 CLA      0.0000
     33 ND         1.1225      -3.3036      -3.6129 N.ar        1 CLA      0.0000
     34 C1D       -0.2026      -3.7012      -3.8970 C.ar        1 CLA      0.0000
     35 C2D       -0.4234      -3.6722      -5.3474 C.2         1 CLA      0.0000
     36 C3D        0.7123      -3.1112      -5.8849 C.2         1 CLA      0.0000
     37 C4D        1.6148      -2.8488      -4.7544 C.ar        1 CLA      0.0000
     38 CMD       -1.6446      -4.1161      -6.0031 C.3         1 CLA      0.0000
     39 CAD        1.3968      -2.6837      -7.0814 C.2         1 CLA      0.0000
     40 OBD        1.0724      -2.8012      -8.2514 O.2         1 CLA      0.0000
     41 CBD        2.7044      -1.9835      -6.6330 C.3         1 CLA      0.0000
     42 CGD        3.8694      -2.6268      -7.3046 C.2         1 CLA      0.0000
     43 O1D        4.8013      -3.2261      -6.7767 O.2         1 CLA      0.0000
     44 O2D        3.8643      -2.5150      -8.6516 O.3         1 CLA      0.0000
     45 CED        5.1260      -2.2804      -9.2747 C.3         1 CLA      0.0000
     46 C1         4.0773       2.0811      -0.5982 C.3         1 CLA      0.0000
     47 C2         3.1972       1.7069       0.5365 C.2         1 CLA      0.0000
     48 C3         3.2329       2.3540       1.7111 C.2         1 CLA      0.0000
     49 C4         4.1492       3.4864       1.9555 C.3         1 CLA      0.0000
     50 C5         2.3457       1.9704       2.8364 C.3         1 CLA      0.0000
     51 C6         1.5441       3.1421       3.3571 C.3         1 CLA      0.0000
     52 C7         0.3708       2.6455       4.1706 C.3         1 CLA      0.0000
     53 C8        -0.9685       3.1199       3.6326 C.3         1 CLA      0.0000
     54 C9        -0.8435       4.4927       3.0189 C.3         1 CLA      0.0000
     55 C10       -1.9917       3.1536       4.7546 C.3         1 CLA      0.0000
     56 C11       -3.3509       2.7063       4.2760 C.3         1 CLA      0.0000
     57 C12       -4.2742       2.3796       5.4292 C.3         1 CLA      0.0000
     58 C13       -5.6598       1.9599       4.9555 C.3         1 CLA      0.0000
     59 C14       -5.6001       1.2183       3.6330 C.3         1 CLA      0.0000
     60 C15       -6.5905       3.1653       4.8601 C.3         1 CLA      0.0000
     61 C16       -7.8933       2.8192       4.1659 C.3         1 CLA      0.0000
     62 C17       -8.6961       4.0569       3.8170 C.3         1 CLA      0.0000
     63 C18       -8.3941       4.5627       2.4138 C.3         1 CLA      0.0000
     64 C19       -9.5068       4.2039       1.4507 C.3         1 CLA      0.0000
     65 C20       -8.1768       6.0598       2.4278 C.3         1 CLA      0.0000
     66 HHB        6.0058      -1.2387      -0.5901 H           1 CLA      0.0000
     67 HHC        0.7077      -3.1947       2.4085 H           1 CLA      0.0000
     68 HHD       -2.0980      -4.3113      -3.2423 H           1 CLA      0.0000
     69 H2A        5.6180      -1.8112      -5.4062 H           1 CLA      0.0000
     70 H3A        6.4414      -0.4888      -3.0332 H           1 CLA      0.0000
     71 HAA1       5.9225       0.7027      -4.8360 H           1 CLA      0.0000
     72 HAA2       4.6524       0.2745      -5.9978 H           1 CLA      0.0000
     73 HBA1       3.5566       1.7755      -4.6115 H           1 CLA      0.0000
     74 HBA2       3.1154       0.2168      -3.8752 H           1 CLA      0.0000
     75 HAB        2.1982      -3.1182       3.8519 H           1 CLA      0.0000
     76 HAC1      -3.1812      -5.4408      -1.6717 H           1 CLA      0.0000
     77 HAC2      -3.4742      -5.4532       0.0815 H           1 CLA      0.0000
     78 HBD        2.6669      -0.9218      -6.8769 H           1 CLA      0.0000
     79 H11        5.1223       1.9616      -0.3123 H           1 CLA      0.0000
     80 H12        3.8895       3.1159      -0.8846 H           1 CLA      0.0000
     81 H2         2.5053       0.8869       0.4127 H           1 CLA      0.0000
     82 H51        1.6567       1.1989       2.4927 H           1 CLA      0.0000
     83 H52        2.9537       1.5681       3.6467 H           1 CLA      0.0000
     84 H61        2.1812       3.7644       3.9855 H           1 CLA      0.0000
     85 H62        1.1779       3.7319       2.5168 H           1 CLA      0.0000
     86 H71        0.3809       1.5555       4.1647 H           1 CLA      0.0000
     87 H72        0.4814       2.9935       5.1976 H           1 CLA      0.0000
     88 H8        -1.3078       2.4217       2.8674 H           1 CLA      0.0000
     89 H101      -1.6620       2.4907       5.5546 H           1 CLA      0.0000
     90 H102      -2.0655       4.1703       5.1405 H           1 CLA      0.0000
     91 H111      -3.2316       1.8170       3.6571 H           1 CLA      0.0000
     92 H112      -3.7966       3.5002       3.6768 H           1 CLA      0.0000
     93 H121      -3.8390       1.5643       6.0071 H           1 CLA      0.0000
     94 H122      -4.3682       3.2574       6.0686 H           1 CLA      0.0000
     95 H13       -6.0732       1.2792       5.6997 H           1 CLA      0.0000
     96 H151      -6.8111       3.5207       5.8666 H           1 CLA      0.0000
     97 H152      -6.0903       3.9582       4.3041 H           1 CLA      0.0000
     98 H161      -7.6694       2.2748       3.2485 H           1 CLA      0.0000
     99 H162      -8.4876       2.1827       4.8214 H           1 CLA      0.0000
    100 H171      -9.7572       3.8165       3.8824 H           1 CLA      0.0000
    101 H172      -8.4654       4.8437       4.5352 H           1 CLA      0.0000
    102 H18       -7.4762       4.0869       2.0687 H           1 CLA      0.0000
    103 HBB1       4.1789      -0.8852       4.3453 H           1 CLA      0.0000
    104 HBB2       3.1422      -1.8286       5.5840 H           1 CLA      0.0000
    105 HMA1       7.4273      -2.6815      -2.4978 H           1 CLA      0.0000
    106 HMA2       7.5525      -2.3685      -4.2454 H           1 CLA      0.0000
    107 HMA3       6.3016      -3.4733      -3.6266 H           1 CLA      0.0000
    108 HMB1       6.3743      -2.1385       1.9478 H           1 CLA      0.0000
    109 HMB2       5.5402      -1.0327       3.0655 H           1 CLA      0.0000
    110 HMB3       5.9716      -0.4845       1.4280 H           1 CLA      0.0000
    111 HMC1      -2.7024      -3.7944       2.0898 H           1 CLA      0.0000
    112 HMC2      -1.0672      -4.0030       2.7609 H           1 CLA      0.0000
    113 HMC3      -1.9627      -5.4124       2.1447 H           1 CLA      0.0000
    114 HBC1      -3.7378      -2.9702      -1.6293 H           1 CLA      0.0000
    115 HBC2      -5.0920      -4.0741      -1.2899 H           1 CLA      0.0000
    116 HBC3      -4.2908      -3.2117       0.0453 H           1 CLA      0.0000
    117 HMD1      -2.0177      -5.0130      -5.5087 H           1 CLA      0.0000
    118 HMD2      -1.4346      -4.3390      -7.0493 H           1 CLA      0.0000
    119 HMD3      -2.3961      -3.3289      -5.9431 H           1 CLA      0.0000
    120 HED1       4.9826      -2.1439     -10.3466 H           1 CLA      0.0000
    121 HED2       5.5785      -1.3835      -8.8519 H           1 CLA      0.0000
    122 HED3       5.7811      -3.1341      -9.1015 H           1 CLA      0.0000
    123 H41        4.0067       3.8572       2.9706 H           1 CLA      0.0000
    124 H42        3.9376       4.2847       1.2443 H           1 CLA      0.0000
    125 H43        5.1796       3.1532       1.8317 H           1 CLA      0.0000
    126 H91       -1.8325       4.9417       2.9272 H           1 CLA      0.0000
    127 H92       -0.3897       4.4090       2.0314 H           1 CLA      0.0000
    128 H93       -0.2176       5.1192       3.6545 H           1 CLA      0.0000
    129 H141      -6.5297       0.6698       3.4812 H           1 CLA      0.0000
    130 H142      -4.7640       0.5192       3.6462 H           1 CLA      0.0000
    131 H143      -5.4633       1.9331       2.8215 H           1 CLA      0.0000
    132 H191      -9.6532       3.1237       1.4501 H           1 CLA      0.0000
    133 H192      -9.2392       4.5346       0.4472 H           1 CLA      0.0000
    134 H193     -10.4288       4.6953       1.7614 H           1 CLA      0.0000
    135 H201      -7.3745       6.3045       3.1239 H           1 CLA      0.0000
    136 H202      -7.9048       6.3966       1.4274 H           1 CLA      0.0000
    137 H203      -9.0945       6.5573       2.7416 H           1 CLA      0.0000
@<TRIPOS>BOND
     1      2      7 ar
     2      2     37 ar
     3      2     41 1
     4      3     10 ar
     5      3     18 ar
     6      4     21 ar
     7      4     26 ar
     8      5     29 ar
     9      5     34 ar
    10      6      7 ar
    11      6     10 ar
    12      7      8 1
    13      8      9 1
    14      8     12 1
    15      9     10 1
    16      9     11 1
    17     12     13 1
    18     13     14 1
    19     14     15 2
    20     14     16 1
    21     16     46 1
    22     17     18 ar
    23     17     21 ar
    24     18     19 1
    25     19     20 2
    26     19     22 1
    27     20     21 1
    28     20     23 2
    29     23     24 2
    30     25     26 ar
    31     25     29 ar
    32     26     27 ar
    33     27     28 ar
    34     27     30 1
    35     28     29 ar
    36     28     31 1
    37     31     32 1
    38     33     34 ar
    39     33     37 ar
    40     34     35 1
    41     35     36 2
    42     35     38 1
    43     36     37 1
    44     36     39 2
    45     39     40 2
    46     39     41 1
    47     41     42 1
    48     42     43 2
    49     42     44 1
    50     44     45 1
    51     46     47 1
    52     47     48 2
    53     48     49 1
    54     48     50 1
    55     50     51 1
    56     51     52 1
    57     52     53 1
    58     53     54 1
    59     53     55 1
    60     55     56 1
    61     56     57 1
    62     57     58 1
    63     58     59 1
    64     58     60 1
    65     60     61 1
    66     61     62 1
    67     62     63 1
    68     63     64 1
    69     63     65 1
    70     66      3 1
    71     67      4 1
    72     68      5 1
    73     69      8 1
    74     70      9 1
    75     71     12 1
    76     72     12 1
    77     73     13 1
    78     74     13 1
    79     75     23 1
    80     76     31 1
    81     77     31 1
    82     78     41 1
    83     79     46 1
    84     80     46 1
    85     81     47 1
    86     82     50 1
    87     83     50 1
    88     84     51 1
    89     85     51 1
    90     86     52 1
    91     87     52 1
    92     88     53 1
    93     89     55 1
    94     90     55 1
    95     91     56 1
    96     92     56 1
    97     93     57 1
    98     94     57 1
    99     95     58 1
   100     96     60 1
   101     97     60 1
   102     98     61 1
   103     99     61 1
   104    100     62 1
   105    101     62 1
   106    102     63 1
   107    103     24 1
   108    104     24 1
   109    105     11 1
   110    106     11 1
   111    107     11 1
   112    108     22 1
   113    109     22 1
   114    110     22 1
   115    111     30 1
   116    112     30 1
   117    113     30 1
   118    114     32 1
   119    115     32 1
   120    116     32 1
   121    117     38 1
   122    118     38 1
   123    119     38 1
   124    120     45 1
   125    121     45 1
   126    122     45 1
   127    123     49 1
   128    124     49 1
   129    125     49 1
   130    126     54 1
   131    127     54 1
   132    128     54 1
   133    129     59 1
   134    130     59 1
   135    131     59 1
   136    132     64 1
   137    133     64 1
   138    134     64 1
   139    135     65 1
   140    136     65 1
   141    137     65 1
   142      1     17 1
   143      1     25 1
   144      1     33 1
   145      1      6 1
