C55H72MgN4O5
NCtclcactv08062602222D 0   0.00000     0.00000
 
137141  0  0  1  0  0  0  0  0999 V2000
    9.0390   -2.6117    0.0000 C   0  0  1  0  0  0  0  0  0  0  0  0
    6.6795    1.2628    0.0000 N   0  5  0  0  0  0  0  0  0  0  0  0
    5.2310   -0.0868    0.0000 N   0  5  0  0  0  0  0  0  0  0  0  0
    9.7067   -0.5470    0.0000 C   0  0  2  0  0  0  0  0  0  0  0  0
    9.7067    0.4395    0.0000 C   0  0  2  0  0  0  0  0  0  0  0  0
   10.5052   -1.1490    0.0000 C   0  0  0  0  0  0  0  0  0  0  0  0
   11.4258   -0.7585    0.0000 C   0  0  0  0  0  0  0  0  0  0  0  0
    2.9223   -1.1855    0.0000 C   0  0  0  0  0  0  0  0  0  0  0  0
   13.9434   -1.5720    0.0000 C   0  0  0  0  0  0  0  0  0  0  0  0
   17.3816   -1.9949    0.0000 C   0  0  0  0  0  0  0  0  0  0  0  0
   24.2580   -2.8409    0.0000 C   0  0  0  0  0  0  0  0  0  0  0  0
   20.8198   -2.4179    0.0000 C   0  0  0  0  0  0  0  0  0  0  0  0
   16.5831   -1.3929    0.0000 C   0  0  0  0  0  0  0  0  0  0  0  0
   25.1786   -2.4504    0.0000 C   0  0  0  0  0  0  0  0  0  0  0  0
   23.4595   -2.2389    0.0000 C   0  0  0  0  0  0  0  0  0  0  0  0
   20.0213   -1.8159    0.0000 C   0  0  0  0  0  0  0  0  0  0  0  0
   18.3022   -1.6044    0.0000 C   0  0  0  0  0  0  0  0  0  0  0  0
   21.7404   -2.0274    0.0000 C   0  0  0  0  0  0  0  0  0  0  0  0
    5.6304   -3.7905    0.0000 C   0  0  0  0  0  0  0  0  0  0  0  0
    7.7483    3.6594    0.0000 C   0  0  0  0  0  0  0  0  0  0  0  0
    2.9223    1.0121    0.0000 C   0  0  0  0  0  0  0  0  0  0  0  0
   10.5025    1.0451    0.0000 C   0  0  0  0  0  0  0  0  0  0  0  0
   15.5404   -2.7760    0.0000 C   0  0  0  0  0  0  0  0  0  0  0  0
   11.4185   -3.7683    0.0000 C   0  0  0  0  0  0  0  0  0  0  0  0
    2.0000   -0.7990    0.0000 C   0  0  0  0  0  0  0  0  0  0  0  0
   26.8977   -2.6619    0.0000 C   0  0  0  0  0  0  0  0  0  0  0  0
   25.8550   -4.0449    0.0000 C   0  0  0  0  0  0  0  0  0  0  0  0
   18.9786   -3.1989    0.0000 C   0  0  0  0  0  0  0  0  0  0  0  0
   22.4168   -3.6219    0.0000 C   0  0  0  0  0  0  0  0  0  0  0  0
    8.1005   -4.5631    0.0000 O   0  0  0  0  0  0  0  0  0  0  0  0
   10.6312   -1.9298    0.0000 O   0  0  0  0  0  0  0  0  0  0  0  0
   12.1022   -2.3530    0.0000 O   0  0  0  0  0  0  0  0  0  0  0  0
   10.0319   -2.7304    0.0000 C   0  0  0  0  0  0  0  0  0  0  0  0
   12.2243   -1.3605    0.0000 C   0  0  0  0  0  0  0  0  0  0  0  0
   15.6625   -1.7835    0.0000 C   0  0  0  0  0  0  0  0  0  0  0  0
   10.4256   -3.6496    0.0000 O   0  0  0  0  0  0  0  0  0  0  0  0
   13.1449   -0.9700    0.0000 O   0  0  0  0  0  0  0  0  0  0  0  0
   19.1007   -2.2064    0.0000 C   0  0  0  0  0  0  0  0  0  0  0  0
   22.5389   -2.6294    0.0000 C   0  0  0  0  0  0  0  0  0  0  0  0
   25.9771   -3.0524    0.0000 C   0  0  0  0  0  0  0  0  0  0  0  0
    5.5935    3.6470    0.0000 C   0  0  0  0  0  0  0  0  0  0  0  0
   14.8640   -1.1815    0.0000 C   0  0  0  0  0  0  0  0  0  0  0  0
    5.9946    4.5631    0.0000 C   0  0  0  0  0  0  0  0  0  0  0  0
    8.0299   -3.5656    0.0000 C   0  0  0  0  0  0  0  0  0  0  0  0
    7.2058   -2.9821    0.0000 C   0  0  0  0  0  0  0  0  0  0  0  0
    6.2191   -2.9821    0.0000 C   0  0  0  0  0  0  0  0  0  0  0  0
    7.5028   -2.0286    0.0000 C   0  0  0  0  0  0  0  0  0  0  0  0
    5.9222   -2.0616    0.0000 C   0  0  0  0  0  0  0  0  0  0  0  0
    5.8892    1.8881    0.0000 C   0  0  0  0  0  0  0  0  0  0  0  0
    7.5028    1.9211    0.0000 C   0  0  0  0  0  0  0  0  0  0  0  0
    4.6717   -0.8440    0.0000 C   0  0  0  0  0  0  0  0  0  0  0  0
    4.6717    0.6705    0.0000 C   0  0  0  0  0  0  0  0  0  0  0  0
    8.4894   -1.7647    0.0000 C   0  0  0  0  0  0  0  0  0  0  0  0
    8.7846   -0.8110    0.0000 C   0  0  0  0  0  0  0  0  0  0  0  0
    8.7516    0.7034    0.0000 C   0  0  0  0  0  0  0  0  0  0  0  0
    6.1862    2.8416    0.0000 C   0  0  0  0  0  0  0  0  0  0  0  0
    7.1728    2.8416    0.0000 C   0  0  0  0  0  0  0  0  0  0  0  0
    3.7182   -0.5800    0.0000 C   0  0  0  0  0  0  0  0  0  0  0  0
    3.7182    0.4066    0.0000 C   0  0  0  0  0  0  0  0  0  0  0  0
    4.9686   -1.7647    0.0000 C   0  0  0  0  0  0  0  0  0  0  0  0
    4.9356    1.6242    0.0000 C   0  0  0  0  0  0  0  0  0  0  0  0
    8.4563    1.6242    0.0000 C   0  0  0  0  0  0  0  0  0  0  0  0
    8.1923   -0.0868    0.0000 N   0  0  0  0  0  0  0  0  0  0  0  0
    6.7126   -1.4362    0.0000 N   0  0  0  0  0  0  0  0  0  0  0  0
    5.5657    1.0062    0.0000 Mg  0  2  0  0  0  0  0  0  0  0  0  0
    9.3668   -2.0854    0.0000 H   0  0  0  0  0  0  0  0  0  0  0  0
    4.5324   -2.2053    0.0000 H   0  0  0  0  0  0  0  0  0  0  0  0
    4.4972    2.0625    0.0000 H   0  0  0  0  0  0  0  0  0  0  0  0
    8.8928    2.0644    0.0000 H   0  0  0  0  0  0  0  0  0  0  0  0
   10.2616   -0.2704    0.0000 H   0  0  0  0  0  0  0  0  0  0  0  0
    9.5894    1.0483    0.0000 H   0  0  0  0  0  0  0  0  0  0  0  0
   10.0517   -1.5717    0.0000 H   0  0  0  0  0  0  0  0  0  0  0  0
   10.8428   -1.6691    0.0000 H   0  0  0  0  0  0  0  0  0  0  0  0
    4.9773    3.5785    0.0000 H   0  0  0  0  0  0  0  0  0  0  0  0
   14.9397   -0.5661    0.0000 H   0  0  0  0  0  0  0  0  0  0  0  0
   11.8794   -0.3358    0.0000 H   0  0  0  0  0  0  0  0  0  0  0  0
   11.0883   -0.2384    0.0000 H   0  0  0  0  0  0  0  0  0  0  0  0
    6.6108    4.6316    0.0000 H   0  0  0  0  0  0  0  0  0  0  0  0
    5.6271    5.0624    0.0000 H   0  0  0  0  0  0  0  0  0  0  0  0
    2.5870   -1.7070    0.0000 H   0  0  0  0  0  0  0  0  0  0  0  0
    3.3777   -1.6062    0.0000 H   0  0  0  0  0  0  0  0  0  0  0  0
    5.1292   -3.4255    0.0000 H   0  0  0  0  0  0  0  0  0  0  0  0
    5.2654   -4.2917    0.0000 H   0  0  0  0  0  0  0  0  0  0  0  0
    6.1316   -4.1555    0.0000 H   0  0  0  0  0  0  0  0  0  0  0  0
   13.4899   -1.9947    0.0000 H   0  0  0  0  0  0  0  0  0  0  0  0
   14.2810   -2.0920    0.0000 H   0  0  0  0  0  0  0  0  0  0  0  0
    8.2553    3.3026    0.0000 H   0  0  0  0  0  0  0  0  0  0  0  0
    8.1051    4.1665    0.0000 H   0  0  0  0  0  0  0  0  0  0  0  0
    7.2412    4.0162    0.0000 H   0  0  0  0  0  0  0  0  0  0  0  0
    3.2978    1.5055    0.0000 H   0  0  0  0  0  0  0  0  0  0  0  0
    2.4289    1.3875    0.0000 H   0  0  0  0  0  0  0  0  0  0  0  0
    2.5469    0.5187    0.0000 H   0  0  0  0  0  0  0  0  0  0  0  0
   10.8780    0.5517    0.0000 H   0  0  0  0  0  0  0  0  0  0  0  0
   10.9959    1.4206    0.0000 H   0  0  0  0  0  0  0  0  0  0  0  0
   10.1270    1.5385    0.0000 H   0  0  0  0  0  0  0  0  0  0  0  0
   16.9281   -2.4177    0.0000 H   0  0  0  0  0  0  0  0  0  0  0  0
   17.7192   -2.5150    0.0000 H   0  0  0  0  0  0  0  0  0  0  0  0
   23.8044   -3.2636    0.0000 H   0  0  0  0  0  0  0  0  0  0  0  0
   24.5955   -3.3609    0.0000 H   0  0  0  0  0  0  0  0  0  0  0  0
   20.3662   -2.8406    0.0000 H   0  0  0  0  0  0  0  0  0  0  0  0
   21.1573   -2.9380    0.0000 H   0  0  0  0  0  0  0  0  0  0  0  0
   17.0366   -0.9702    0.0000 H   0  0  0  0  0  0  0  0  0  0  0  0
   16.2456   -0.8729    0.0000 H   0  0  0  0  0  0  0  0  0  0  0  0
   14.9250   -2.7003    0.0000 H   0  0  0  0  0  0  0  0  0  0  0  0
   15.4647   -3.3913    0.0000 H   0  0  0  0  0  0  0  0  0  0  0  0
   16.1558   -2.8517    0.0000 H   0  0  0  0  0  0  0  0  0  0  0  0
   25.6321   -2.0276    0.0000 H   0  0  0  0  0  0  0  0  0  0  0  0
   24.8410   -1.9303    0.0000 H   0  0  0  0  0  0  0  0  0  0  0  0
   23.9130   -1.8161    0.0000 H   0  0  0  0  0  0  0  0  0  0  0  0
   23.1219   -1.7188    0.0000 H   0  0  0  0  0  0  0  0  0  0  0  0
   20.4748   -1.3932    0.0000 H   0  0  0  0  0  0  0  0  0  0  0  0
   19.6837   -1.2959    0.0000 H   0  0  0  0  0  0  0  0  0  0  0  0
   18.7557   -1.1817    0.0000 H   0  0  0  0  0  0  0  0  0  0  0  0
   17.9646   -1.0844    0.0000 H   0  0  0  0  0  0  0  0  0  0  0  0
   22.1939   -1.6047    0.0000 H   0  0  0  0  0  0  0  0  0  0  0  0
   21.4028   -1.5073    0.0000 H   0  0  0  0  0  0  0  0  0  0  0  0
   18.5299   -2.4485    0.0000 H   0  0  0  0  0  0  0  0  0  0  0  0
   23.0339   -3.0026    0.0000 H   0  0  0  0  0  0  0  0  0  0  0  0
   25.4063   -3.2945    0.0000 H   0  0  0  0  0  0  0  0  0  0  0  0
   11.3449   -4.3839    0.0000 H   0  0  0  0  0  0  0  0  0  0  0  0
   12.0341   -3.8419    0.0000 H   0  0  0  0  0  0  0  0  0  0  0  0
   11.4921   -3.1527    0.0000 H   0  0  0  0  0  0  0  0  0  0  0  0
    2.2396   -0.2271    0.0000 H   0  0  0  0  0  0  0  0  0  0  0  0
    1.4282   -0.5593    0.0000 H   0  0  0  0  0  0  0  0  0  0  0  0
    1.7604   -1.3708    0.0000 H   0  0  0  0  0  0  0  0  0  0  0  0
   27.1398   -3.2326    0.0000 H   0  0  0  0  0  0  0  0  0  0  0  0
   27.4684   -2.4197    0.0000 H   0  0  0  0  0  0  0  0  0  0  0  0
   26.6555   -2.0911    0.0000 H   0  0  0  0  0  0  0  0  0  0  0  0
   25.2396   -3.9692    0.0000 H   0  0  0  0  0  0  0  0  0  0  0  0
   25.7793   -4.6602    0.0000 H   0  0  0  0  0  0  0  0  0  0  0  0
   26.4703   -4.1206    0.0000 H   0  0  0  0  0  0  0  0  0  0  0  0
   18.3632   -3.1232    0.0000 H   0  0  0  0  0  0  0  0  0  0  0  0
   18.9029   -3.8143    0.0000 H   0  0  0  0  0  0  0  0  0  0  0  0
   19.5940   -3.2746    0.0000 H   0  0  0  0  0  0  0  0  0  0  0  0
   21.8014   -3.5462    0.0000 H   0  0  0  0  0  0  0  0  0  0  0  0
   22.3411   -4.2373    0.0000 H   0  0  0  0  0  0  0  0  0  0  0  0
   23.0321   -3.6976    0.0000 H   0  0  0  0  0  0  0  0  0  0  0  0
 47 53  1  0  0  0  0
 45 47  1  0  0  0  0
 53 54  2  0  0  0  0
  1 53  1  0  0  0  0
 47 64  2  0  0  0  0
 54 63  1  0  0  0  0
  1 44  1  0  0  0  0
 48 64  1  0  0  0  0
  2 49  1  0  0  0  0
 50 62  2  0  0  0  0
 51 60  1  0  0  0  0
  2 50  1  0  0  0  0
  3 52  1  0  0  0  0
  3 51  1  0  0  0  0
 55 63  2  0  0  0  0
 45 46  2  0  0  0  0
 56 57  2  0  0  0  0
 48 60  2  0  0  0  0
 49 61  2  0  0  0  0
 55 62  1  0  0  0  0
 50 57  1  0  0  0  0
 51 58  2  0  0  0  0
 58 59  1  0  0  0  0
  4 54  1  0  0  0  0
  4  5  1  0  0  0  0
  1 33  1  1  0  0  0
  4  6  1  6  0  0  0
 30 44  2  0  0  0  0
 41 56  1  0  0  0  0
  7 34  1  0  0  0  0
 31 33  2  0  0  0  0
 32 34  2  0  0  0  0
 35 42  2  0  0  0  0
  9 42  1  0  0  0  0
  6  7  1  0  0  0  0
 41 43  2  0  0  0  0
 33 36  1  0  0  0  0
 34 37  1  0  0  0  0
  8 58  1  0  0  0  0
 19 46  1  0  0  0  0
  9 37  1  0  0  0  0
 20 57  1  0  0  0  0
 21 59  1  0  0  0  0
  5 22  1  1  0  0  0
 10 13  1  0  0  0  0
 11 15  1  0  0  0  0
 12 16  1  0  0  0  0
 13 35  1  0  0  0  0
 23 35  1  0  0  0  0
 11 14  1  0  0  0  0
 15 39  1  0  0  0  0
 16 38  1  0  0  0  0
 10 17  1  0  0  0  0
 12 18  1  0  0  0  0
 17 38  1  0  0  0  0
 18 39  1  0  0  0  0
 14 40  1  0  0  0  0
 24 36  1  0  0  0  0
  8 25  1  0  0  0  0
 26 40  1  0  0  0  0
 27 40  1  0  0  0  0
 28 38  1  0  0  0  0
 29 39  1  0  0  0  0
 44 45  1  0  0  0  0
  5 55  1  0  0  0  0
 46 48  1  0  0  0  0
 49 56  1  0  0  0  0
 52 59  2  0  0  0  0
 52 61  1  0  0  0  0
  1 66  1  0  0  0  0
 60 67  1  0  0  0  0
 61 68  1  0  0  0  0
 62 69  1  0  0  0  0
  4 70  1  0  0  0  0
  5 71  1  0  0  0  0
  6 72  1  0  0  0  0
  6 73  1  0  0  0  0
 41 74  1  0  0  0  0
 42 75  1  0  0  0  0
  7 76  1  0  0  0  0
  7 77  1  0  0  0  0
 43 78  1  0  0  0  0
 43 79  1  0  0  0  0
  8 80  1  0  0  0  0
  8 81  1  0  0  0  0
 19 82  1  0  0  0  0
 19 83  1  0  0  0  0
 19 84  1  0  0  0  0
  9 85  1  0  0  0  0
  9 86  1  0  0  0  0
 20 87  1  0  0  0  0
 20 88  1  0  0  0  0
 20 89  1  0  0  0  0
 21 90  1  0  0  0  0
 21 91  1  0  0  0  0
 21 92  1  0  0  0  0
 22 93  1  0  0  0  0
 22 94  1  0  0  0  0
 22 95  1  0  0  0  0
 10 96  1  0  0  0  0
 10 97  1  0  0  0  0
 11 98  1  0  0  0  0
 11 99  1  0  0  0  0
 12100  1  0  0  0  0
 12101  1  0  0  0  0
 13102  1  0  0  0  0
 13103  1  0  0  0  0
 23104  1  0  0  0  0
 23105  1  0  0  0  0
 23106  1  0  0  0  0
 14107  1  0  0  0  0
 14108  1  0  0  0  0
 15109  1  0  0  0  0
 15110  1  0  0  0  0
 16111  1  0  0  0  0
 16112  1  0  0  0  0
 17113  1  0  0  0  0
 17114  1  0  0  0  0
 18115  1  0  0  0  0
 18116  1  0  0  0  0
 38117  1  0  0  0  0
 39118  1  0  0  0  0
 40119  1  0  0  0  0
 24120  1  0  0  0  0
 24121  1  0  0  0  0
 24122  1  0  0  0  0
 25123  1  0  0  0  0
 25124  1  0  0  0  0
 25125  1  0  0  0  0
 26126  1  0  0  0  0
 26127  1  0  0  0  0
 26128  1  0  0  0  0
 27129  1  0  0  0  0
 27130  1  0  0  0  0
 27131  1  0  0  0  0
 28132  1  0  0  0  0
 28133  1  0  0  0  0
 28134  1  0  0  0  0
 29135  1  0  0  0  0
 29136  1  0  0  0  0
 29137  1  0  0  0  0
M  CHG  3   2  -1   3  -1  65   2
M  END
$$$$
