@<TRIPOS>MOLECULE
NADPH (NADP)
75 79 1 0 0
SMALL
NO_CHARGES


@<TRIPOS>ATOM
      1 PA         1.9187     -0.2484     -3.2741 P.3      1 NAP      0.0000
      2 O1A        1.7075      0.9784     -2.4860 O.co2    1 NAP      0.0000
      3 O2A        2.5400     -0.4184     -4.5483 O.co2    1 NAP      0.0000
      4 O5B        0.4286     -1.0099     -3.3881 O.3      1 NAP      0.0000
      5 C5B       -0.4097     -0.9304     -2.2346 C.3      1 NAP      0.0000
      6 C4B       -1.8068     -0.7612     -2.7909 C.3      1 NAP      0.0000
      7 O4B       -2.6499     -0.8965     -1.6436 O.3      1 NAP      0.0000
      8 C3B       -2.0561      0.6048     -3.3591 C.3      1 NAP      0.0000
      9 O3B       -2.9215      0.5200     -4.4793 O.3      1 NAP      0.0000
     10 C2B       -2.8447      1.3321     -2.3042 C.3      1 NAP      0.0000
     11 O2B       -3.7675      2.2611     -2.9454 O.3      1 NAP      0.0000
     12 C1B       -3.6056      0.1491     -1.7164 C.3      1 NAP      0.0000
     13 N9A       -4.1725      0.4586     -0.3827 N.ar     1 NAP      0.0000
     14 C8A       -3.9021      1.6025      0.3655 C.ar     1 NAP      0.0000
     15 N7A       -4.5838      1.6102      1.4800 N.ar     1 NAP      0.0000
     16 C5A       -5.3480      0.4612      1.4450 C.ar     1 NAP      0.0000
     17 C6A       -6.2842     -0.0538      2.3373 C.ar     1 NAP      0.0000
     18 N6A       -6.5873      0.5634      3.4813 N.pl3    1 NAP      0.0000
     19 N1A       -6.8646     -1.2440      1.9991 N.ar     1 NAP      0.0000
     20 C2A       -6.5558     -1.8580      0.8609 C.ar     1 NAP      0.0000
     21 N3A       -5.6738     -1.4457     -0.0501 N.ar     1 NAP      0.0000
     22 C4A       -5.1030     -0.2537      0.3253 C.ar     1 NAP      0.0000
     23 O3         2.5326     -1.2222     -2.1169 O.3      1 NAP      0.0000
     24 PN         4.0896     -1.6009     -1.8560 P.3      1 NAP      0.0000
     25 O1N        4.7674     -1.6122     -3.1515 O.co2    1 NAP      0.0000
     26 O2N        3.9543     -2.9289     -1.1170 O.co2    1 NAP      0.0000
     27 O5D        4.6038     -0.5671     -0.7515 O.3      1 NAP      0.0000
     28 C5D        4.0985      0.8212     -0.8916 C.3      1 NAP      0.0000
     29 C4D        4.1091      1.5342      0.4661 C.3      1 NAP      0.0000
     30 O4D        2.8898      1.3171      1.1647 O.3      1 NAP      0.0000
     31 C3D        5.1710      0.9537      1.4242 C.3      1 NAP      0.0000
     32 O3D        6.5061      1.3539      1.1281 O.3      1 NAP      0.0000
     33 C2D        4.6676      1.4485      2.7374 C.3      1 NAP      0.0000
     34 O2D        4.8011      2.8390      2.8991 O.3      1 NAP      0.0000
     35 C1D        3.1554      1.0578      2.5397 C.3      1 NAP      0.0000
     36 N1N        3.0477     -0.4082      2.7694 N.ar     1 NAP      0.0000
     37 C2N        2.5437     -1.1891      1.7467 C.ar     1 NAP      0.0000
     38 C3N        2.4295     -2.6052      1.9927 C.ar     1 NAP      0.0000
     39 C7N        1.9102     -3.5186      0.9742 C.2      1 NAP      0.0000
     40 O7N        2.3022     -4.6989      0.9029 O.2      1 NAP      0.0000
     41 N7N        1.0312     -3.1200      0.0664 N.am     1 NAP      0.0000
     42 C4N        2.8294     -3.1177      3.2208 C.ar     1 NAP      0.0000
     43 C5N        3.3044     -2.3053      4.1771 C.ar     1 NAP      0.0000
     44 C6N        3.4231     -0.9687      3.9818 C.ar     1 NAP      0.0000
     45 P2B       -3.3695      3.8623     -2.9720 P.3      1 NAP      0.0000
     46 O1X       -1.8863      3.9444     -2.6874 O.3      1 NAP      0.0000
     47 O2X       -3.6547      4.1081     -4.3520 O.co2    1 NAP      0.0000
     48 O3X       -4.0591      4.3237     -1.7903 O.co2    1 NAP      0.0000
     49 H5B1      -0.3387     -1.8435     -1.6435 H        1 NAP      0.0000
     50 H5B2      -0.1373     -0.0662     -1.6287 H        1 NAP      0.0000
     51 H4B       -2.0273     -1.5338     -3.5275 H        1 NAP      0.0000
     52 H3B       -1.1269      1.1208     -3.6007 H        1 NAP      0.0000
     53 H2B       -2.2049      1.8215     -1.5699 H        1 NAP      0.0000
     54 H1B       -4.4088     -0.1394     -2.3945 H        1 NAP      0.0000
     55 H8A       -3.2178      2.3815      0.0634 H        1 NAP      0.0000
     56 H2A       -7.0713     -2.7840      0.6534 H        1 NAP      0.0000
     57 H5D1       4.7353      1.3664     -1.5883 H        1 NAP      0.0000
     58 H5D2       3.0796      0.7968     -1.2781 H        1 NAP      0.0000
     59 H4D        4.2752      2.6024      0.3264 H        1 NAP      0.0000
     60 H3D        5.1118     -0.1345      1.4059 H        1 NAP      0.0000
     61 H2D        5.1161      0.9042      3.5685 H        1 NAP      0.0000
     62 H1D        2.4968      1.6246      3.1978 H        1 NAP      0.0000
     63 H2N        2.2477     -0.7566      0.8023 H        1 NAP      0.0000
     64 H4N        2.7574     -4.1790      3.4070 H        1 NAP      0.0000
     65 H5N        3.5997     -2.7267      5.1267 H        1 NAP      0.0000
     66 H6N        3.8100     -0.3403      4.7703 H        1 NAP      0.0000
     67 H1A       -7.5384     -1.6637      2.6235 H        1 NAP      0.0000
     68 H7N1       0.6932     -2.1683      0.0743 H        1 NAP      0.0000
     69 H7N2       0.6990     -3.7680     -0.6336 H        1 NAP      0.0000
     70 HO3D       6.5104      2.2711      0.8446 H        1 NAP      0.0000
     71 H1X       -1.4198      3.3083     -3.2344 H        1 NAP      0.0000
     72 HO2D       5.1984      3.0249      3.7531 H        1 NAP      0.0000
     73 HO3B      -3.6058     -0.1309     -4.3070 H        1 NAP      0.0000
     74 H6A1      -6.5548      1.5728      3.4744 H        1 NAP      0.0000
     75 H6A2      -7.3326      0.3197      4.1179 H        1 NAP      0.0000
@<TRIPOS>BOND
     1     1     2 1
     2     1     3 1
     3     1     4 1
     4     1    23 1
     5     4     5 1
     6     5     6 1
     7     6     7 1
     8     6     8 1
     9     7    12 1
    10     8     9 1
    11     8    10 1
    12    10    11 1
    13    10    12 1
    14    11    45 1
    15    12    13 1
    16    13    14 ar
    17    13    22 ar
    18    14    15 ar
    19    15    16 ar
    20    16    17 ar
    21    16    22 ar
    22    17    18 1
    23    17    19 ar
    24    19    20 ar
    25    20    21 ar
    26    21    22 ar
    27    23    24 1
    28    24    25 1
    29    24    26 1
    30    24    27 1
    31    27    28 1
    32    28    29 1
    33    29    30 1
    34    29    31 1
    35    30    35 1
    36    31    32 1
    37    31    33 1
    38    33    34 1
    39    33    35 1
    40    35    36 1
    41    36    37 ar
    42    36    44 ar
    43    37    38 ar
    44    38    39 1
    45    38    42 ar
    46    39    40 2
    47    39    41 am
    48    42    43 ar
    49    43    44 ar
    50    45    46 1
    51    45    47 1
    52    45    48 1
    53    49     5 1
    54    50     5 1
    55    51     6 1
    56    52     8 1
    57    53    10 1
    58    54    12 1
    59    55    14 1
    60    56    20 1
    61    57    28 1
    62    58    28 1
    63    59    29 1
    64    60    31 1
    65    61    33 1
    66    62    35 1
    67    63    37 1
    68    64    42 1
    69    65    43 1
    70    66    44 1
    71    67    19 1
    72    68    41 1
    73    69    41 1
    74    70    32 1
    75    71    46 1
    76    72    34 1
    77    73     9 1
    78    74    18 1
    79    75    18 1
