@<TRIPOS>MOLECULE
plastoquinone-9 (PL9)
135 135 1 0 0
SMALL
NO_CHARGES


@<TRIPOS>ATOM
      1 C2        -0.5416      1.6907      8.6667 C.2      1 PL9      0.0000
      2 C3        -1.5466      0.7647      8.6517 C.2      1 PL9      0.0000
      3 C4        -2.7226      0.9577      9.4697 C.2      1 PL9      0.0000
      4 C5        -2.8046      2.1547     10.2897 C.2      1 PL9      0.0000
      5 C6        -1.7846      3.0827     10.2927 C.2      1 PL9      0.0000
      6 C1        -0.6136      2.8717      9.4707 C.2      1 PL9      0.0000
      7 C7        -1.3946     -0.4303      7.7987 C.3      1 PL9      0.0000
      8 C8        -0.3546     -1.4123      8.2507 C.2      1 PL9      0.0000
      9 C9        -0.2516     -2.6653      7.7707 C.2      1 PL9      0.0000
     10 C10        0.5154     -3.7243      8.4517 C.3      1 PL9      0.0000
     11 C11       -0.9446     -3.0473      6.5027 C.3      1 PL9      0.0000
     12 C12       -0.1326     -2.6303      5.2607 C.3      1 PL9      0.0000
     13 C13       -0.8806     -3.2033      4.1047 C.2      1 PL9      0.0000
     14 C14       -0.3126     -3.8423      3.0777 C.2      1 PL9      0.0000
     15 C15        0.9944     -3.4293      2.5187 C.3      1 PL9      0.0000
     16 C16       -0.7756     -5.1973      2.6597 C.3      1 PL9      0.0000
     17 C17       -1.8146     -5.2123      1.5257 C.3      1 PL9      0.0000
     18 C18       -1.4726     -6.2513      0.4777 C.2      1 PL9      0.0000
     19 C19       -0.8876     -6.0873     -0.7283 C.2      1 PL9      0.0000
     20 C20       -0.6036     -7.2753     -1.5533 C.3      1 PL9      0.0000
     21 C21       -0.2046     -4.7803     -1.0683 C.3      1 PL9      0.0000
     22 C22        0.0694     -4.5653     -2.5843 C.3      1 PL9      0.0000
     23 C23        1.1624     -3.5543     -2.7113 C.2      1 PL9      0.0000
     24 C24        0.9974     -2.4303     -3.4143 C.2      1 PL9      0.0000
     25 C25       -0.2486     -1.6523     -3.4143 C.3      1 PL9      0.0000
     26 C26        2.1654     -1.8523     -4.1383 C.3      1 PL9      0.0000
     27 C27        2.6474     -2.7803     -5.2643 C.3      1 PL9      0.0000
     28 C28        2.2624     -2.1603     -6.5593 C.2      1 PL9      0.0000
     29 C29        3.1494     -1.7373     -7.4663 C.2      1 PL9      0.0000
     30 C30        4.4914     -2.3543     -7.6153 C.3      1 PL9      0.0000
     31 C31        2.8154     -0.6653     -8.4443 C.3      1 PL9      0.0000
     32 C32        3.9364      0.3347     -8.7783 C.3      1 PL9      0.0000
     33 C33        3.8114      1.4667     -7.7993 C.2      1 PL9      0.0000
     34 C34        4.8264      1.8707     -7.0313 C.2      1 PL9      0.0000
     35 C35        6.2284      1.4987     -7.2823 C.3      1 PL9      0.0000
     36 C36        4.5564      2.7567     -5.8553 C.3      1 PL9      0.0000
     37 C37        3.5124      2.1517     -4.8863 C.3      1 PL9      0.0000
     38 C38        2.4404      3.1827     -4.6363 C.2      1 PL9      0.0000
     39 C39        1.6094      3.1067     -3.6023 C.2      1 PL9      0.0000
     40 C40        1.6564      4.1507     -2.5553 C.3      1 PL9      0.0000
     41 C41        0.7524      1.8847     -3.4633 C.3      1 PL9      0.0000
     42 C42       -0.5786      2.2017     -2.7433 C.3      1 PL9      0.0000
     43 C43       -1.5216      2.7847     -3.7313 C.2      1 PL9      0.0000
     44 C44       -2.6456      3.4227     -3.4173 C.2      1 PL9      0.0000
     45 C45       -3.4416      4.1127     -4.4523 C.3      1 PL9      0.0000
     46 C46       -3.2486      3.4447     -2.0513 C.3      1 PL9      0.0000
     47 C47       -3.7706      4.8277     -1.6473 C.3      1 PL9      0.0000
     48 C48       -4.3626      4.6657     -0.2963 C.2      1 PL9      0.0000
     49 C49       -3.8576      5.2557      0.7737 C.2      1 PL9      0.0000
     50 C50       -3.4226      4.3907      1.8897 C.3      1 PL9      0.0000
     51 C51       -3.8066      6.7107      0.9787 C.3      1 PL9      0.0000
     52 C52       -4.0126      2.3267     11.1127 C.3      1 PL9      0.0000
     53 C53       -1.8046      4.3047     11.0937 C.3      1 PL9      0.0000
     54 O1        -3.6096      0.0977      9.4367 O.2      1 PL9      0.0000
     55 O2         0.3544      3.6547      9.4097 O.2      1 PL9      0.0000
     56 H2         0.3323      1.5261      8.0538 H        1 PL9      0.0000
     57 H71       -2.3542     -0.9464      7.7682 H        1 PL9      0.0000
     58 H72       -1.1457     -0.1042      6.7888 H        1 PL9      0.0000
     59 H8         0.3516     -1.0958      9.0041 H        1 PL9      0.0000
     60 H111      -1.0825     -4.1284      6.4877 H        1 PL9      0.0000
     61 H112      -1.9205     -2.5629      6.4698 H        1 PL9      0.0000
     62 H121      -0.0803     -1.5443      5.1834 H        1 PL9      0.0000
     63 H122       0.8709     -3.0534      5.3072 H        1 PL9      0.0000
     64 H13       -1.9551     -3.0943      4.0971 H        1 PL9      0.0000
     65 H161      -1.2173     -5.6856      3.5283 H        1 PL9      0.0000
     66 H162       0.0916     -5.7760      2.3416 H        1 PL9      0.0000
     67 H171      -2.7943     -5.4409      1.9453 H        1 PL9      0.0000
     68 H172      -1.8468     -4.2287      1.0571 H        1 PL9      0.0000
     69 H18       -1.7339     -7.2681      0.7312 H        1 PL9      0.0000
     70 H211      -0.8384     -3.9652     -0.7190 H        1 PL9      0.0000
     71 H212       0.7445     -4.7354     -0.5342 H        1 PL9      0.0000
     72 H221       0.3784     -5.5050     -3.0422 H        1 PL9      0.0000
     73 H222      -0.8324     -4.1964     -3.0730 H        1 PL9      0.0000
     74 H23        2.1084     -3.7366     -2.2231 H        1 PL9      0.0000
     75 H261       1.8756     -0.8940     -4.5693 H        1 PL9      0.0000
     76 H262       2.9806     -1.6943     -3.4322 H        1 PL9      0.0000
     77 H271       2.1756     -3.7580     -5.1665 H        1 PL9      0.0000
     78 H272       3.7310     -2.8875     -5.2149 H        1 PL9      0.0000
     79 H28        1.2113     -2.0454     -6.7792 H        1 PL9      0.0000
     80 H311       2.5147     -1.1479     -9.3742 H        1 PL9      0.0000
     81 H312       1.9629     -0.1058     -8.0592 H        1 PL9      0.0000
     82 H321       4.9100     -0.1446     -8.6757 H        1 PL9      0.0000
     83 H322       3.8111      0.7073     -9.7950 H        1 PL9      0.0000
     84 H33        2.8622      1.9746     -7.7129 H        1 PL9      0.0000
     85 H361       5.4889      2.9112     -5.3125 H        1 PL9      0.0000
     86 H362       4.1913      3.7193     -6.2134 H        1 PL9      0.0000
     87 H371       3.0695      1.2611     -5.3321 H        1 PL9      0.0000
     88 H372       3.9950      1.8891     -3.9449 H        1 PL9      0.0000
     89 H38        2.3449      4.0118     -5.3217 H        1 PL9      0.0000
     90 H411       0.5326      1.4922     -4.4561 H        1 PL9      0.0000
     91 H412       1.2956      1.1307     -2.8936 H        1 PL9      0.0000
     92 H421      -0.9998      1.2855     -2.3294 H        1 PL9      0.0000
     93 H422      -0.3996      2.9176     -1.9411 H        1 PL9      0.0000
     94 H43       -1.2775      2.6835     -4.7785 H        1 PL9      0.0000
     95 H461      -4.0796      2.7398     -2.0276 H        1 PL9      0.0000
     96 H462      -2.4965      3.1272     -1.3290 H        1 PL9      0.0000
     97 H471      -2.9521      5.5470     -1.6177 H        1 PL9      0.0000
     98 H472      -4.5335      5.1591     -2.3518 H        1 PL9      0.0000
     99 H48       -5.2378      4.0432     -0.1829 H        1 PL9      0.0000
    100 H101       0.9690     -3.3203      9.3567 H        1 PL9      0.0000
    101 H102      -0.1528     -4.5442      8.7153 H        1 PL9      0.0000
    102 H103       1.2968     -4.0919      7.7866 H        1 PL9      0.0000
    103 H151       1.2455     -2.4318      2.8793 H        1 PL9      0.0000
    104 H152       0.9366     -3.4181      1.4303 H        1 PL9      0.0000
    105 H153       1.7636     -4.1341      2.8344 H        1 PL9      0.0000
    106 H201      -0.9143     -8.1726     -1.0182 H        1 PL9      0.0000
    107 H202       0.4655     -7.3272     -1.7592 H        1 PL9      0.0000
    108 H203      -1.1515     -7.2046     -2.4929 H        1 PL9      0.0000
    109 H251      -1.0129     -2.1894     -2.8526 H        1 PL9      0.0000
    110 H252      -0.0710     -0.6823     -2.9498 H        1 PL9      0.0000
    111 H253      -0.5864     -1.5074     -4.4404 H        1 PL9      0.0000
    112 H301       4.4998     -3.3291     -7.1277 H        1 PL9      0.0000
    113 H302       5.2402     -1.7108     -7.1534 H        1 PL9      0.0000
    114 H303       4.7200     -2.4757     -8.6741 H        1 PL9      0.0000
    115 H351       6.8792      2.0586     -6.6107 H        1 PL9      0.0000
    116 H352       6.3577      0.4308     -7.1065 H        1 PL9      0.0000
    117 H353       6.4865      1.7307     -8.3156 H        1 PL9      0.0000
    118 H401       2.5599      4.7481     -2.6774 H        1 PL9      0.0000
    119 H402       0.7810      4.7940     -2.6445 H        1 PL9      0.0000
    120 H403       1.6624      3.6795     -1.5724 H        1 PL9      0.0000
    121 H451      -3.1847      3.7151     -5.4341 H        1 PL9      0.0000
    122 H452      -4.5027      3.9517     -4.2616 H        1 PL9      0.0000
    123 H453      -3.2255      5.1807     -4.4249 H        1 PL9      0.0000
    124 H501      -3.5141      3.3449      1.5965 H        1 PL9      0.0000
    125 H502      -4.0495      4.5796      2.7611 H        1 PL9      0.0000
    126 H503      -2.3834      4.6096      2.1353 H        1 PL9      0.0000
    127 H511      -4.1541      7.2174      0.0784 H        1 PL9      0.0000
    128 H512      -2.7808      7.0116      1.1917 H        1 PL9      0.0000
    129 H513      -4.4466      6.9820      1.8183 H        1 PL9      0.0000
    130 H521      -4.6816      1.4802     10.9583 H        1 PL9      0.0000
    131 H522      -3.7309      2.3798     12.1643 H        1 PL9      0.0000
    132 H523      -4.5198      3.2478     10.8255 H        1 PL9      0.0000
    133 H531      -0.8882      4.8687     10.9199 H        1 PL9      0.0000
    134 H532      -1.8765      4.0453     12.1499 H        1 PL9      0.0000
    135 H533      -2.6642      4.9115     10.8093 H        1 PL9      0.0000
@<TRIPOS>BOND
     1     1     2 2
     2     1     6 2
     3     2     3 2
     4     2     7 1
     5     3     4 2
     6     3    54 2
     7     4     5 2
     8     4    52 1
     9     5     6 2
    10     5    53 1
    11     6    55 2
    12     7     8 1
    13     8     9 2
    14     9    10 1
    15     9    11 1
    16    11    12 1
    17    12    13 1
    18    13    14 2
    19    14    15 1
    20    14    16 1
    21    16    17 1
    22    17    18 1
    23    18    19 2
    24    19    20 1
    25    19    21 1
    26    21    22 1
    27    22    23 1
    28    23    24 2
    29    24    25 1
    30    24    26 1
    31    26    27 1
    32    27    28 1
    33    28    29 2
    34    29    30 1
    35    29    31 1
    36    31    32 1
    37    32    33 1
    38    33    34 2
    39    34    35 1
    40    34    36 1
    41    36    37 1
    42    37    38 1
    43    38    39 2
    44    39    40 1
    45    39    41 1
    46    41    42 1
    47    42    43 1
    48    43    44 2
    49    44    45 1
    50    44    46 1
    51    46    47 1
    52    47    48 1
    53    48    49 2
    54    49    50 1
    55    49    51 1
    56    56     1 1
    57    57     7 1
    58    58     7 1
    59    59     8 1
    60    60    11 1
    61    61    11 1
    62    62    12 1
    63    63    12 1
    64    64    13 1
    65    65    16 1
    66    66    16 1
    67    67    17 1
    68    68    17 1
    69    69    18 1
    70    70    21 1
    71    71    21 1
    72    72    22 1
    73    73    22 1
    74    74    23 1
    75    75    26 1
    76    76    26 1
    77    77    27 1
    78    78    27 1
    79    79    28 1
    80    80    31 1
    81    81    31 1
    82    82    32 1
    83    83    32 1
    84    84    33 1
    85    85    36 1
    86    86    36 1
    87    87    37 1
    88    88    37 1
    89    89    38 1
    90    90    41 1
    91    91    41 1
    92    92    42 1
    93    93    42 1
    94    94    43 1
    95    95    46 1
    96    96    46 1
    97    97    47 1
    98    98    47 1
    99    99    48 1
   100   100    10 1
   101   101    10 1
   102   102    10 1
   103   103    15 1
   104   104    15 1
   105   105    15 1
   106   106    20 1
   107   107    20 1
   108   108    20 1
   109   109    25 1
   110   110    25 1
   111   111    25 1
   112   112    30 1
   113   113    30 1
   114   114    30 1
   115   115    35 1
   116   116    35 1
   117   117    35 1
   118   118    40 1
   119   119    40 1
   120   120    40 1
   121   121    45 1
   122   122    45 1
   123   123    45 1
   124   124    50 1
   125   125    50 1
   126   126    50 1
   127   127    51 1
   128   128    51 1
   129   129    51 1
   130   130    52 1
   131   131    52 1
   132   132    52 1
   133   133    53 1
   134   134    53 1
   135   135    53 1
