@<TRIPOS>MOLECULE
ADP (ADPK)
39 41 1 0 0
SMALL
NO_CHARGES


@<TRIPOS>ATOM
      1 N1          -6.0687    -1.7088     1.5653 N.2        1 ADPK      0.0000
      2 C1          -4.9288    -1.6939     0.7633 C.ar       1 ADPK      0.0000
      3 N2          -5.0725    -2.0085    -0.5423 N.ar       1 ADPK      0.0000
      4 C2          -3.9560    -2.0281    -1.3120 C.ar       1 ADPK      0.0000
      5 N3          -2.6872    -1.7821    -0.9505 N.ar       1 ADPK      0.0000
      6 C3          -2.5865    -1.4855     0.3552 C.ar       1 ADPK      0.0000
      7 N4          -1.4679    -1.1999     1.0901 N.ar       1 ADPK      0.0000
      8 C4          -1.8866    -1.0063     2.3917 C.ar       1 ADPK      0.0000
      9 N5          -3.1879    -1.1499     2.5356 N.ar       1 ADPK      0.0000
     10 C5          -3.6389    -1.4282     1.2612 C.ar       1 ADPK      0.0000
     11 C6          -0.0677    -1.1564     0.6747 C.3        1 ADPK      0.0000
     12 O1           0.5291    -0.0210     1.3201 O.3        1 ADPK      0.0000
     13 C7           1.4769     0.5939     0.3950 C.3        1 ADPK      0.0000
     14 C8           0.9644     1.9893     0.0432 C.3        1 ADPK      0.0000
     15 O2           1.8108     2.6246    -0.8812 O.3        1 ADPK      0.0000
     16 P1           3.0634     3.4927    -0.2833 P.3        1 ADPK      0.0000
     17 O3           3.1792     3.2220     1.2067 O.2        1 ADPK      0.0000
     18 O4           2.7408     4.9308    -0.6855 O.3        1 ADPK     -1.0000
     19 O5           4.2749     2.9509    -1.1655 O.3        1 ADPK      0.0000
     20 P2           5.1327     1.5972    -1.3399 P.3        1 ADPK      0.0000
     21 O6           4.2284     0.4255    -0.9635 O.2        1 ADPK      0.0000
     22 O7           6.3632     1.7205    -0.4470 O.3        1 ADPK     -1.0000
     23 O8           5.4942     1.5694    -2.8219 O.3        1 ADPK     -1.0000
     24 C9           1.5492    -0.3126    -0.8357 C.3        1 ADPK      0.0000
     25 O9           2.5651    -1.3267    -0.6881 O.3        1 ADPK      0.0000
     26 C10          0.2178    -1.0373    -0.8249 C.3        1 ADPK      0.0000
     27 O10          0.3466    -2.3229    -1.4572 O.3        1 ADPK      0.0000
     28 H1          -5.8433    -1.8579     2.5360 H          1 ADPK      0.0000
     29 H2          -6.7860    -2.2892     1.1529 H          1 ADPK      0.0000
     30 H3          -4.1037    -2.2863    -2.3521 H          1 ADPK      0.0000
     31 H4          -1.1900    -0.7669     3.1830 H          1 ADPK      0.0000
     32 H5           0.3873    -2.0632     1.0903 H          1 ADPK      0.0000
     33 H6           2.4437     0.6518     0.9062 H          1 ADPK      0.0000
     34 H7           0.8204     2.5967     0.9449 H          1 ADPK      0.0000
     35 H8          -0.0319     1.9138    -0.4024 H          1 ADPK      0.0000
     36 H9           1.7294     0.1985    -1.7903 H          1 ADPK      0.0000
     37 H10          3.4019    -0.7531    -0.7571 H          1 ADPK      0.0000
     38 H11         -0.5384    -0.4438    -1.3463 H          1 ADPK      0.0000
     39 H12          1.3225    -2.4044    -1.5690 H          1 ADPK      0.0000
@<TRIPOS>BOND
     1     1     2 1
     2     2     3 ar
     3     3     4 ar
     4     4     5 ar
     5     5     6 ar
     6     6     7 ar
     7     7     8 ar
     8     8     9 ar
     9     9    10 ar
    10     7    11 1
    11    11    12 1
    12    12    13 1
    13    13    14 1
    14    14    15 1
    15    15    16 1
    16    16    17 2
    17    16    18 1
    18    16    19 1
    19    19    20 1
    20    20    21 2
    21    20    22 1
    22    20    23 1
    23    13    24 1
    24    24    25 1
    25    24    26 1
    26    26    27 1
    27    10     2 ar
    28    26    11 1
    29    10     6 ar
    30     1    28 1
    31     1    29 1
    32     4    30 1
    33     8    31 1
    34    11    32 1
    35    13    33 1
    36    14    34 1
    37    14    35 1
    38    24    36 1
    39    25    37 1
    40    26    38 1
    41    27    39 1
