@<TRIPOS>MOLECULE
alaniini (ALANIINI)
13 12 1 0 0
SMALL
NO_CHARGES


@<TRIPOS>ATOM
      1 C1          -0.8530     1.0321     0.4846 C.3        1 ALAN      0.0000
      2 C2          -0.2604    -0.3269     0.1360 C.3        1 ALAN      0.0000
      3 N1          -0.9786    -0.8658    -1.0366 N.3        1 ALAN      0.0000
      4 C3           1.2439    -0.2582    -0.1611 C.2        1 ALAN      0.0000
      5 O1           1.8524    -0.9513    -0.9648 O.2        1 ALAN      0.0000
      6 O2           1.9208     0.5986     0.6289 O.2        1 ALAN      0.0000
      7 H1          -0.4079     1.4303     1.4030 H          1 ALAN      0.0000
      8 H2          -0.6731     1.7637    -0.3115 H          1 ALAN      0.0000
      9 H3          -1.9341     0.9631     0.6492 H          1 ALAN      0.0000
     10 H4          -0.3870    -1.0183     0.9767 H          1 ALAN      0.0000
     11 H5          -1.9009    -1.1888    -0.7516 H          1 ALAN      0.0000
     12 H6          -0.4706    -1.6852    -1.3782 H          1 ALAN      0.0000
     13 H7           2.8484     0.5067     0.3254 H          1 ALAN      0.0000
@<TRIPOS>BOND
     1     1     2 1
     2     2     3 1
     3     2     4 1
     4     4     5 2
     5     4     6 1
     6     1     7 1
     7     1     8 1
     8     1     9 1
     9     2    10 1
    10     3    11 1
    11     3    12 1
    12     6    13 1
