@<TRIPOS>MOLECULE
arginiini (ARGINIINI)
26 25 1 0 0
SMALL
NO_CHARGES


@<TRIPOS>ATOM
      1 N1          -3.5109    -1.2381     0.5703 N.3        1 ARGI      0.0000
      2 C1          -2.4074    -0.2661     0.4185 C.3        1 ARGI      0.0000
      3 C2          -1.1907    -0.9487    -0.2215 C.3        1 ARGI      0.0000
      4 C3           0.0477    -0.0464    -0.2457 C.3        1 ARGI      0.0000
      5 C4           1.2538    -0.7782    -0.8358 C.3        1 ARGI      0.0000
      6 N2           2.4110     0.0945    -0.8852 N.2        1 ARGI      0.0000
      7 C5           3.1512     0.4555     0.1844 C.2        1 ARGI      0.0000
      8 N3           3.9664     1.4877    -0.1016 N.2        1 ARGI      0.0000
      9 N4           3.1704    -0.0553     1.3575 N.2        1 ARGI      0.0000
     10 C6          -2.8913     0.8954    -0.4560 C.2        1 ARGI      0.0000
     11 O1          -3.5015     0.8006    -1.5110 O.2        1 ARGI      0.0000
     12 O2          -2.5437     2.1036     0.0290 O.2        1 ARGI      0.0000
     13 H1          -3.8599    -1.4860    -0.3585 H          1 ARGI      0.0000
     14 H2          -3.1638    -2.0977     0.9908 H          1 ARGI      0.0000
     15 H3          -2.1587     0.1130     1.4157 H          1 ARGI      0.0000
     16 H4          -0.9465    -1.8596     0.3406 H          1 ARGI      0.0000
     17 H5          -1.4285    -1.2606    -1.2470 H          1 ARGI      0.0000
     18 H6           0.2746     0.2898     0.7732 H          1 ARGI      0.0000
     19 H7          -0.1515     0.8544    -0.8385 H          1 ARGI      0.0000
     20 H8           1.4795    -1.6871    -0.2669 H          1 ARGI      0.0000
     21 H9           1.0236    -1.0985    -1.8584 H          1 ARGI      0.0000
     22 H10          2.3044     0.8575    -1.5460 H          1 ARGI      0.0000
     23 H11          4.5139     1.3247    -0.9370 H          1 ARGI      0.0000
     24 H12          4.5859     1.6413     0.6895 H          1 ARGI      0.0000
     25 H13          2.5139    -0.8335     1.4037 H          1 ARGI      0.0000
     26 H14         -2.9418     2.7376    -0.6032 H          1 ARGI      0.0000
@<TRIPOS>BOND
     1     1     2 1
     2     2     3 1
     3     3     4 1
     4     4     5 1
     5     5     6 1
     6     6     7 1
     7     7     8 1
     8     7     9 2
     9     2    10 1
    10    10    11 2
    11    10    12 1
    12     1    13 1
    13     1    14 1
    14     2    15 1
    15     3    16 1
    16     3    17 1
    17     4    18 1
    18     4    19 1
    19     5    20 1
    20     5    21 1
    21     6    22 1
    22     8    23 1
    23     8    24 1
    24     9    25 1
    25    12    26 1
