@<TRIPOS>MOLECULE
asetaldehydi (ASETALDEHYDI)
7 6 1 0 0
SMALL
NO_CHARGES


@<TRIPOS>ATOM
      1 C1          -0.6486    -0.0502    -0.0182 C.3        1 ASET      0.0000
      2 C2           0.8443     0.0593     0.0261 C.2        1 ASET      0.0000
      3 O1           1.4603     1.0547    -0.3402 O.2        1 ASET      0.0000
      4 H1          -1.0805     0.8711    -0.4168 H          1 ASET      0.0000
      5 H2          -0.9266    -0.8894    -0.6599 H          1 ASET      0.0000
      6 H3          -1.0248    -0.2202     0.9932 H          1 ASET      0.0000
      7 H4           1.3757    -0.8253     0.4158 H          1 ASET      0.0000
@<TRIPOS>BOND
     1     1     2 1
     2     2     3 2
     3     1     4 1
     4     1     5 1
     5     1     6 1
     6     2     7 1
