@<TRIPOS>MOLECULE
asetyylikoentsyymi A (ASETYYLICOA)
89 91 1 0 0
SMALL
NO_CHARGES


@<TRIPOS>ATOM
      1 C1          12.6333     2.8239     2.3139 C.3        1 ASET      0.0000
      2 C2          12.6874     1.8201     1.2008 C.2        1 ASET      0.0000
      3 O1          13.2928     2.0143     0.1515 O.2        1 ASET      0.0000
      4 S1          11.7837     0.3443     1.5154 S.3        1 ASET      0.0000
      5 C3          12.0286    -0.4889    -0.0913 C.3        1 ASET      0.0000
      6 C4          11.3730    -1.8722    -0.0909 C.3        1 ASET      0.0000
      7 N1           9.9311    -1.8279     0.0925 N.2        1 ASET      0.0000
      8 C5           9.0967    -1.5216    -0.9597 C.2        1 ASET      0.0000
      9 O2           9.4958    -1.3675    -2.1083 O.2        1 ASET      0.0000
     10 C6           7.6456    -1.4014    -0.5585 C.3        1 ASET      0.0000
     11 C7           6.7636    -1.1396    -1.7692 C.3        1 ASET      0.0000
     12 N2           5.3522    -1.0924    -1.4167 N.2        1 ASET      0.0000
     13 C8           4.4339    -0.7397    -2.3809 C.2        1 ASET      0.0000
     14 O3           4.7387    -0.3355    -3.5024 O.2        1 ASET      0.0000
     15 C9           2.9559    -0.9420    -2.0053 C.3        1 ASET      0.0000
     16 O4           2.2337    -1.2213    -3.2205 O.3        1 ASET      0.0000
     17 C10          2.2836     0.2575    -1.2862 C.3        1 ASET      0.0000
     18 C11          3.0150     0.6098     0.0196 C.3        1 ASET      0.0000
     19 C12          2.2698     1.5093    -2.1888 C.3        1 ASET      0.0000
     20 C13          0.8316    -0.1707    -0.9485 C.3        1 ASET      0.0000
     21 O5           0.0258     0.9294    -0.5536 O.3        1 ASET      0.0000
     22 P1          -1.4693     1.0526    -1.1208 P.3        1 ASET      0.0000
     23 O6          -2.3652     2.0524    -0.4500 O.2        1 ASET      0.0000
     24 O7          -1.2274     1.4197    -2.6641 O.3        1 ASET      0.0000
     25 O8          -2.0655    -0.4176    -1.2246 O.3        1 ASET      0.0000
     26 P2          -2.6609    -1.1764     0.0379 P.3        1 ASET      0.0000
     27 O9          -1.7879    -1.1687     1.2429 O.2        1 ASET      0.0000
     28 O10         -2.9110    -2.6493    -0.5429 O.3        1 ASET      0.0000
     29 O11         -4.1459    -0.6127     0.2621 O.3        1 ASET      0.0000
     30 C14         -4.9654    -0.3286    -0.8611 C.3        1 ASET      0.0000
     31 C15         -6.2842     0.3076    -0.4255 C.3        1 ASET      0.0000
     32 O12         -7.1459    -0.7251     0.0943 O.3        1 ASET      0.0000
     33 C16         -7.9641    -0.0954     1.1015 C.3        1 ASET      0.0000
     34 N3          -8.5391    -1.1364     1.9199 N.ar       1 ASET      0.0000
     35 C17         -7.8951    -1.9252     2.8379 C.ar       1 ASET      0.0000
     36 N4          -8.7007    -2.8159     3.3775 N.ar       1 ASET      0.0000
     37 C18         -9.9166    -2.6082     2.7592 C.ar       1 ASET      0.0000
     38 C19        -11.1563    -3.2601     2.8685 C.ar       1 ASET      0.0000
     39 N5         -11.3772    -4.3283     3.7303 N.2        1 ASET      0.0000
     40 N6         -12.1713    -2.8577     2.0677 N.ar       1 ASET      0.0000
     41 C20        -11.9511    -1.8218     1.2292 C.ar       1 ASET      0.0000
     42 N7         -10.8212    -1.1084     1.0516 N.ar       1 ASET      0.0000
     43 C21         -9.8367    -1.5693     1.8458 C.ar       1 ASET      0.0000
     44 C22         -7.0218     0.8799     1.8054 C.3        1 ASET      0.0000
     45 O13         -7.7034     1.9074     2.5163 O.3        1 ASET      0.0000
     46 C23         -6.1652     1.3963     0.6498 C.3        1 ASET      0.0000
     47 O14         -6.7030     2.6136     0.1376 O.3        1 ASET      0.0000
     48 P3          -5.6468     3.7285    -0.3185 P.3        1 ASET      0.0000
     49 O15         -5.0171     4.4712     0.8078 O.2        1 ASET      0.0000
     50 O16         -6.4444     4.6506    -1.3452 O.3        1 ASET      0.0000
     51 O17         -4.6206     2.9492    -1.2546 O.3        1 ASET      0.0000
     52 H1          13.3004     3.6600     2.0783 H          1 ASET      0.0000
     53 H2          11.6156     3.2104     2.4210 H          1 ASET      0.0000
     54 H3          12.9692     2.3674     3.2514 H          1 ASET      0.0000
     55 H4          11.5988     0.1405    -0.8781 H          1 ASET      0.0000
     56 H5          13.1023    -0.5998    -0.2785 H          1 ASET      0.0000
     57 H6          11.7883    -2.5007     0.7035 H          1 ASET      0.0000
     58 H7          11.5759    -2.3676    -1.0470 H          1 ASET      0.0000
     59 H8           9.5867    -1.7149     1.0372 H          1 ASET      0.0000
     60 H9           7.3397    -2.3287    -0.0651 H          1 ASET      0.0000
     61 H10          7.5464    -0.5895     0.1667 H          1 ASET      0.0000
     62 H11          6.8839    -1.9288    -2.5220 H          1 ASET      0.0000
     63 H12          7.0340    -0.1908    -2.2524 H          1 ASET      0.0000
     64 H13          5.0304    -1.7168    -0.6866 H          1 ASET      0.0000
     65 H14          2.8776    -1.8460    -1.3900 H          1 ASET      0.0000
     66 H15          2.8280    -0.9358    -3.9545 H          1 ASET      0.0000
     67 H16          3.1233    -0.2706     0.6628 H          1 ASET      0.0000
     68 H17          4.0160     1.0133    -0.1727 H          1 ASET      0.0000
     69 H18          2.4640     1.3680     0.5864 H          1 ASET      0.0000
     70 H19          1.7039     1.3362    -3.1115 H          1 ASET      0.0000
     71 H20          1.8188     2.3671    -1.6760 H          1 ASET      0.0000
     72 H21          3.2849     1.8052    -2.4703 H          1 ASET      0.0000
     73 H22          0.3698    -0.6707    -1.8031 H          1 ASET      0.0000
     74 H23          0.8303    -0.8965    -0.1269 H          1 ASET      0.0000
     75 H24         -0.6089     0.8353    -3.1324 H          1 ASET      0.0000
     76 H25         -3.4466    -2.6861    -1.3521 H          1 ASET      0.0000
     77 H26         -4.4331     0.3518    -1.5320 H          1 ASET      0.0000
     78 H27         -5.1590    -1.2641    -1.3978 H          1 ASET      0.0000
     79 H28         -6.7812     0.6933    -1.3217 H          1 ASET      0.0000
     80 H29         -8.7796     0.4434     0.6039 H          1 ASET      0.0000
     81 H30         -6.8427    -1.8191     3.0746 H          1 ASET      0.0000
     82 H31        -10.5195    -4.7748     4.0492 H          1 ASET      0.0000
     83 H32        -12.1310    -4.9233     3.4223 H          1 ASET      0.0000
     84 H33        -12.7972    -1.5312     0.6138 H          1 ASET      0.0000
     85 H34         -6.3640     0.3588     2.5095 H          1 ASET      0.0000
     86 H35         -7.2041     2.7355     2.3992 H          1 ASET      0.0000
     87 H36         -5.1407     1.5735     0.9928 H          1 ASET      0.0000
     88 H37         -6.9583     5.3465    -0.8987 H          1 ASET      0.0000
     89 H38         -3.7138     2.9107    -0.8522 H          1 ASET      0.0000
@<TRIPOS>BOND
     1     1     2 1
     2     2     3 2
     3     2     4 1
     4     4     5 1
     5     5     6 1
     6     6     7 1
     7     7     8 1
     8     8     9 2
     9     8    10 1
    10    10    11 1
    11    11    12 1
    12    12    13 1
    13    13    14 2
    14    13    15 1
    15    15    16 1
    16    15    17 1
    17    17    18 1
    18    17    19 1
    19    17    20 1
    20    20    21 1
    21    21    22 1
    22    22    23 2
    23    22    24 1
    24    22    25 1
    25    25    26 1
    26    26    27 2
    27    26    28 1
    28    26    29 1
    29    29    30 1
    30    30    31 1
    31    31    32 1
    32    32    33 1
    33    33    34 1
    34    34    35 ar
    35    35    36 ar
    36    36    37 ar
    37    37    38 ar
    38    38    39 1
    39    38    40 ar
    40    40    41 ar
    41    41    42 ar
    42    42    43 ar
    43    33    44 1
    44    44    45 1
    45    44    46 1
    46    46    47 1
    47    47    48 1
    48    48    49 2
    49    48    50 1
    50    48    51 1
    51    46    31 1
    52    43    34 ar
    53    43    37 ar
    54     1    52 1
    55     1    53 1
    56     1    54 1
    57     5    55 1
    58     5    56 1
    59     6    57 1
    60     6    58 1
    61     7    59 1
    62    10    60 1
    63    10    61 1
    64    11    62 1
    65    11    63 1
    66    12    64 1
    67    15    65 1
    68    16    66 1
    69    18    67 1
    70    18    68 1
    71    18    69 1
    72    19    70 1
    73    19    71 1
    74    19    72 1
    75    20    73 1
    76    20    74 1
    77    24    75 1
    78    28    76 1
    79    30    77 1
    80    30    78 1
    81    31    79 1
    82    33    80 1
    83    35    81 1
    84    39    82 1
    85    39    83 1
    86    41    84 1
    87    44    85 1
    88    45    86 1
    89    46    87 1
    90    50    88 1
    91    51    89 1
