@<TRIPOS>MOLECULE
asetaatti (ASETAATTI)
7 6 1 0 0
SMALL
NO_CHARGES


@<TRIPOS>ATOM
      1 C1          -0.6400    -0.0300     0.0003 C.3        1 ASET      0.0000
      2 C2           0.8774     0.0346    -0.0010 C.2        1 ASET      0.0000
      3 O1           1.3580     1.1980     0.1022 O.2        1 ASET      0.0000
      4 O2           1.4642    -1.0781    -0.1047 O.2        1 ASET     -1.0000
      5 H1          -0.9954    -1.0608    -0.0915 H          1 ASET      0.0000
      6 H2          -1.0279     0.3877     0.9342 H          1 ASET      0.0000
      7 H3          -1.0363     0.5485    -0.8395 H          1 ASET      0.0000
@<TRIPOS>BOND
     1     1     2 1
     2     2     3 2
     3     2     4 1
     4     1     5 1
     5     1     6 1
     6     1     7 1
