@<TRIPOS>MOLECULE
N-metyylipropan-2-imiini (ASETONIMETYYLIIMIINI)
14 13 1 0 0
SMALL
NO_CHARGES


@<TRIPOS>ATOM
      1 C1          -1.3865     0.6039    -1.2249 C.3        1 ASET      0.0000
      2 C2          -0.2944     0.1627    -0.2830 C.2        1 ASET      0.0000
      3 C3          -0.6328    -0.9332     0.6978 C.3        1 ASET      0.0000
      4 N1           0.8582     0.7338    -0.3803 N.2        1 ASET      0.0000
      5 C4           1.9239     0.3052     0.5135 C.3        1 ASET      0.0000
      6 H1          -1.0301     1.3954    -1.8898 H          1 ASET      0.0000
      7 H2          -2.2341     0.9791    -0.6450 H          1 ASET      0.0000
      8 H3          -1.7108    -0.2496    -1.8264 H          1 ASET      0.0000
      9 H4          -0.0615    -1.8326     0.4535 H          1 ASET      0.0000
     10 H5          -1.6986    -1.1724     0.6459 H          1 ASET      0.0000
     11 H6          -0.4007    -0.6126     1.7164 H          1 ASET      0.0000
     12 H7           2.1304    -0.7655     0.4173 H          1 ASET      0.0000
     13 H8           2.8434     0.8371     0.2495 H          1 ASET      0.0000
     14 H9           1.6938     0.5489     1.5555 H          1 ASET      0.0000
@<TRIPOS>BOND
     1     1     2 1
     2     2     3 1
     3     2     4 2
     4     4     5 1
     5     1     6 1
     6     1     7 1
     7     1     8 1
     8     3     9 1
     9     3    10 1
    10     3    11 1
    11     5    12 1
    12     5    13 1
    13     5    14 1
