@<TRIPOS>MOLECULE
asetamidi (ASETAMIDI)
9 8 1 0 0
SMALL
NO_CHARGES


@<TRIPOS>ATOM
      1 C1           1.0148    -0.4028     0.1850 C.3        1 ASET      0.0000
      2 C2          -0.1320     0.5672     0.1797 C.2        1 ASET      0.0000
      3 N1          -1.3058     0.0852    -0.3144 N.2        1 ASET      0.0000
      4 O1          -0.0400     1.7180     0.5896 O.2        1 ASET      0.0000
      5 H1           0.7055    -1.3930    -0.1611 H          1 ASET      0.0000
      6 H2           1.3994    -0.4961     1.2041 H          1 ASET      0.0000
      7 H3           1.8018    -0.0299    -0.4757 H          1 ASET      0.0000
      8 H4          -1.3690    -0.7877    -0.8184 H          1 ASET      0.0000
      9 H5          -2.0747     0.7390    -0.3886 H          1 ASET      0.0000
@<TRIPOS>BOND
     1     1     2 1
     2     2     3 1
     3     2     4 2
     4     1     5 1
     5     1     6 1
     6     1     7 1
     7     3     8 1
     8     3     9 1
