@<TRIPOS>MOLECULE
asetyylifosfaatti (ASETYYLIFOSFAATTI)
11 10 1 0 0
SMALL
NO_CHARGES


@<TRIPOS>ATOM
      1 C1           1.8761     0.1580     0.0153 C.3        1 ASET      0.0000
      2 C2           0.5346    -0.3833    -0.3920 C.2        1 ASET      0.0000
      3 O1           0.4427    -1.2957    -1.2050 O.2        1 ASET      0.0000
      4 O2          -0.3955     0.3038     0.2787 O.2        1 ASET      0.0000
      5 P1          -1.9984     0.1100     0.1983 P.3        1 ASET      0.0000
      6 O3          -2.2391    -1.3164     0.6690 O.2        1 ASET      0.0000
      7 O4          -2.3511     0.4062    -1.2515 O.3        1 ASET     -1.0000
      8 O5          -2.5044     1.1668     1.1758 O.3        1 ASET     -1.0000
      9 H1           2.6648    -0.3830    -0.5160 H          1 ASET      0.0000
     10 H2           1.9461     1.2167    -0.2480 H          1 ASET      0.0000
     11 H3           2.0242     0.0170     1.0892 H          1 ASET      0.0000
@<TRIPOS>BOND
     1     1     2 1
     2     2     3 2
     3     2     4 1
     4     4     5 1
     5     5     6 2
     6     5     7 1
     7     5     8 1
     8     1     9 1
     9     1    10 1
    10     1    11 1
