@<TRIPOS>MOLECULE
asetoni (ASETONI)
10 9 1 0 0
SMALL
NO_CHARGES


@<TRIPOS>ATOM
      1 C1          -1.2838    -0.1384    -0.0490 C.3        1 ASET      0.0000
      2 C2           0.0644    -0.0607     0.6149 C.2        1 ASET      0.0000
      3 C3           1.2489     0.1713    -0.2837 C.3        1 ASET      0.0000
      4 O1           0.1919    -0.1809     1.8324 O.2        1 ASET      0.0000
      5 H1          -1.4932     0.8023    -0.5641 H          1 ASET      0.0000
      6 H2          -2.0571    -0.3084     0.7053 H          1 ASET      0.0000
      7 H3          -1.2948    -0.9685    -0.7597 H          1 ASET      0.0000
      8 H4           1.1306     1.1232    -0.8072 H          1 ASET      0.0000
      9 H5           2.1638     0.2078     0.3141 H          1 ASET      0.0000
     10 H6           1.3290    -0.6476    -1.0028 H          1 ASET      0.0000
@<TRIPOS>BOND
     1     1     2 1
     2     2     3 1
     3     2     4 2
     4     1     5 1
     5     1     6 1
     6     1     7 1
     7     3     8 1
     8     3     9 1
     9     3    10 1
