@<TRIPOS>MOLECULE
asetyylikoliini (ASETYYLIKOLIINI)
26 25 1 0 0
SMALL
NO_CHARGES


@<TRIPOS>ATOM
      1 C1           3.8251    -0.0976    -0.5715 C.3        1 ASET      0.0000
      2 C2           2.8249    -0.4604     0.4817 C.2        1 ASET      0.0000
      3 O1           3.0713    -0.5880     1.6708 O.2        1 ASET      0.0000
      4 O2           1.5849    -0.6158    -0.0702 O.2        1 ASET      0.0000
      5 C3           0.5877    -1.0200     0.8810 C.3        1 ASET      0.0000
      6 C4          -0.7854    -1.1128     0.2019 C.3        1 ASET      0.0000
      7 N1          -1.4587     0.2504    -0.1145 N.3        1 ASET      1.0000
      8 C5          -0.5932     1.1090    -1.0291 C.3        1 ASET      0.0000
      9 C6          -2.7763    -0.0423    -0.8391 C.3        1 ASET      0.0000
     10 C7          -1.7758     1.0242     1.1602 C.3        1 ASET      0.0000
     11 H1           3.8655    -0.8831    -1.3302 H          1 ASET      0.0000
     12 H2           3.5556     0.8604    -1.0229 H          1 ASET      0.0000
     13 H3           4.8144    -0.0044    -0.1146 H          1 ASET      0.0000
     14 H4           0.5669    -0.3335     1.7328 H          1 ASET      0.0000
     15 H5           0.8544    -2.0197     1.2450 H          1 ASET      0.0000
     16 H6          -1.4848    -1.6541     0.8491 H          1 ASET      0.0000
     17 H7          -0.6982    -1.6403    -0.7552 H          1 ASET      0.0000
     18 H8          -1.1843     1.9719    -1.3518 H          1 ASET      0.0000
     19 H9           0.2779     1.4581    -0.4698 H          1 ASET      0.0000
     20 H10         -0.2966     0.5073    -1.8928 H          1 ASET      0.0000
     21 H11         -3.2722     0.9079    -1.0591 H          1 ASET      0.0000
     22 H12         -3.4016    -0.6555    -0.1834 H          1 ASET      0.0000
     23 H13         -2.5492    -0.5772    -1.7661 H          1 ASET      0.0000
     24 H14         -0.8402     1.3281     1.6351 H          1 ASET      0.0000
     25 H15         -2.3555     0.3759     1.8234 H          1 ASET      0.0000
     26 H16         -2.3564     1.9115     0.8895 H          1 ASET      0.0000
@<TRIPOS>BOND
     1     1     2 1
     2     2     3 2
     3     2     4 1
     4     4     5 1
     5     5     6 1
     6     6     7 1
     7     7     8 1
     8     7     9 1
     9     7    10 1
    10     1    11 1
    11     1    12 1
    12     1    13 1
    13     5    14 1
    14     5    15 1
    15     6    16 1
    16     6    17 1
    17     8    18 1
    18     8    19 1
    19     8    20 1
    20     9    21 1
    21     9    22 1
    22     9    23 1
    23    10    24 1
    24    10    25 1
    25    10    26 1
