@<TRIPOS>MOLECULE
asetyylipanteteiini (ASETYYLIPANTETEIINI)
45 44 1 0 0
SMALL
NO_CHARGES


@<TRIPOS>ATOM
      1 C1           7.7870     1.8224     1.0896 C.3        1 ASET      0.0000
      2 C2           6.3702     1.3988     0.8276 C.2        1 ASET      0.0000
      3 O1           5.8848     1.2890    -0.2919 O.2        1 ASET      0.0000
      4 S1           5.4113     1.0985     2.2693 S.3        1 ASET      0.0000
      5 C3           5.2423    -0.7146     2.1377 C.3        1 ASET      0.0000
      6 C4           4.4292    -1.2125     0.9412 C.3        1 ASET      0.0000
      7 N1           3.1375    -0.5644     0.8176 N.2        1 ASET      0.0000
      8 C5           2.0943    -1.1850     0.1623 C.2        1 ASET      0.0000
      9 O2           2.1295    -2.3543    -0.2070 O.2        1 ASET      0.0000
     10 C6           0.9099    -0.2706    -0.0615 C.3        1 ASET      0.0000
     11 C7          -0.2719    -1.0412    -0.6348 C.3        1 ASET      0.0000
     12 N2          -1.3917    -0.1793    -0.9669 N.2        1 ASET      0.0000
     13 C8          -2.2178     0.3559    -0.0020 C.2        1 ASET      0.0000
     14 O3          -1.9939     0.2955     1.2046 O.2        1 ASET      0.0000
     15 C9          -3.4856     1.0259    -0.5698 C.3        1 ASET      0.0000
     16 O4          -3.2712     1.3763    -1.9466 O.3        1 ASET      0.0000
     17 C10         -4.7635     0.1500    -0.4356 C.3        1 ASET      0.0000
     18 C11         -4.6342    -1.1600    -1.2387 C.3        1 ASET      0.0000
     19 C12         -5.9588     0.9433    -1.0161 C.3        1 ASET      0.0000
     20 C13         -5.0874    -0.1573     1.0480 C.3        1 ASET      0.0000
     21 O5          -4.2347    -1.1386     1.6194 O.3        1 ASET      0.0000
     22 H1           7.8028     2.7744     1.6298 H          1 ASET      0.0000
     23 H2           8.3167     1.0517     1.6611 H          1 ASET      0.0000
     24 H3           8.3034     1.9546     0.1321 H          1 ASET      0.0000
     25 H4           6.2407    -1.1661     2.1243 H          1 ASET      0.0000
     26 H5           4.7520    -1.0450     3.0606 H          1 ASET      0.0000
     27 H6           4.2807    -2.2942     1.0411 H          1 ASET      0.0000
     28 H7           4.9666    -1.0594    -0.0005 H          1 ASET      0.0000
     29 H8           3.1377     0.4503     0.8390 H          1 ASET      0.0000
     30 H9           1.2132     0.5231    -0.7544 H          1 ASET      0.0000
     31 H10          0.6413     0.1992     0.8912 H          1 ASET      0.0000
     32 H11         -0.6198    -1.7980     0.0785 H          1 ASET      0.0000
     33 H12          0.0126    -1.5577    -1.5585 H          1 ASET      0.0000
     34 H13         -1.7924    -0.2436    -1.9005 H          1 ASET      0.0000
     35 H14         -3.6198     1.9692    -0.0246 H          1 ASET      0.0000
     36 H15         -2.5657     2.0497    -1.9526 H          1 ASET      0.0000
     37 H16         -4.4635    -0.9630    -2.3029 H          1 ASET      0.0000
     38 H17         -5.5498    -1.7580    -1.1588 H          1 ASET      0.0000
     39 H18         -3.8074    -1.7821    -0.8805 H          1 ASET      0.0000
     40 H19         -6.0942     1.8945    -0.4879 H          1 ASET      0.0000
     41 H20         -5.8205     1.1660    -2.0798 H          1 ASET      0.0000
     42 H21         -6.8925     0.3756    -0.9228 H          1 ASET      0.0000
     43 H22         -5.0451     0.7490     1.6636 H          1 ASET      0.0000
     44 H23         -6.1059    -0.5531     1.1331 H          1 ASET      0.0000
     45 H24         -3.3766    -0.7149     1.8329 H          1 ASET      0.0000
@<TRIPOS>BOND
     1     1     2 1
     2     2     3 2
     3     2     4 1
     4     4     5 1
     5     5     6 1
     6     6     7 1
     7     7     8 1
     8     8     9 2
     9     8    10 1
    10    10    11 1
    11    11    12 1
    12    12    13 1
    13    13    14 2
    14    13    15 1
    15    15    16 1
    16    15    17 1
    17    17    18 1
    18    17    19 1
    19    17    20 1
    20    20    21 1
    21     1    22 1
    22     1    23 1
    23     1    24 1
    24     5    25 1
    25     5    26 1
    26     6    27 1
    27     6    28 1
    28     7    29 1
    29    10    30 1
    30    10    31 1
    31    11    32 1
    32    11    33 1
    33    12    34 1
    34    15    35 1
    35    16    36 1
    36    18    37 1
    37    18    38 1
    38    18    39 1
    39    19    40 1
    40    19    41 1
    41    19    42 1
    42    20    43 1
    43    20    44 1
    44    21    45 1
