@<TRIPOS>MOLECULE
askorbiinihappo (ASKORBIINIHAPPO)
20 20 1 0 0
SMALL
NO_CHARGES


@<TRIPOS>ATOM
      1 O1          -3.0560     1.0242     0.3301 O.3        1 ASKO      0.0000
      2 C1          -1.6462     0.7930     0.3599 C.3        1 ASKO      0.0000
      3 C2          -1.1916     0.2390    -0.9958 C.3        1 ASKO      0.0000
      4 O2          -1.9288    -0.9720    -1.2537 O.3        1 ASKO      0.0000
      5 C3           0.3252     0.0030    -1.1128 C.3        1 ASKO      0.0000
      6 O3           1.0542     1.2384    -0.9859 O.2        1 ASKO      0.0000
      7 C4           1.9959     1.1141    -0.0074 C.2        1 ASKO      0.0000
      8 O4           2.7958     1.9598     0.3496 O.2        1 ASKO      0.0000
      9 C5           1.8893    -0.2229     0.5916 C.2        1 ASKO      0.0000
     10 O5           2.6404    -0.6961     1.6266 O.2        1 ASKO      0.0000
     11 C6           0.9113    -0.8495    -0.0483 C.2        1 ASKO      0.0000
     12 O6           0.4457    -2.1106     0.2057 O.2        1 ASKO      0.0000
     13 H1          -3.4390     0.2756    -0.1696 H          1 ASKO      0.0000
     14 H2          -1.1507     1.7380     0.5992 H          1 ASKO      0.0000
     15 H3          -1.4622     0.0781     1.1677 H          1 ASKO      0.0000
     16 H4          -1.5002     0.9516    -1.7701 H          1 ASKO      0.0000
     17 H5          -1.5026    -1.6858    -0.7361 H          1 ASKO      0.0000
     18 H6           0.5534    -0.4304    -2.0941 H          1 ASKO      0.0000
     19 H7           3.2567     0.0303     1.8590 H          1 ASKO      0.0000
     20 H8           1.0094    -2.4777     0.9198 H          1 ASKO      0.0000
@<TRIPOS>BOND
     1     1     2 1
     2     2     3 1
     3     3     4 1
     4     3     5 1
     5     5     6 1
     6     6     7 1
     7     7     8 2
     8     7     9 1
     9     9    10 1
    10     9    11 2
    11    11    12 1
    12    11     5 1
    13     1    13 1
    14     2    14 1
    15     2    15 1
    16     3    16 1
    17     4    17 1
    18     5    18 1
    19    10    19 1
    20    12    20 1
