@<TRIPOS>MOLECULE
asparagiini (ASPARAGIINI)
17 16 1 0 0
SMALL
NO_CHARGES


@<TRIPOS>ATOM
      1 N1          -2.6201     0.8231    -0.9620 N.2        1 ASPA      0.0000
      2 C1          -1.3825     0.2524    -1.0414 C.2        1 ASPA      0.0000
      3 O1          -0.7929     0.1752    -2.1122 O.2        1 ASPA      0.0000
      4 C2          -0.8612    -0.2973     0.2678 C.3        1 ASPA      0.0000
      5 C3           0.6051    -0.7057     0.1395 C.3        1 ASPA      0.0000
      6 N2           1.0148    -1.5062     1.3244 N.3        1 ASPA      0.0000
      7 C4           1.5029     0.5345     0.0339 C.2        1 ASPA      0.0000
      8 O2           1.1593     1.7051     0.0533 O.2        1 ASPA      0.0000
      9 O3           2.8152     0.2104    -0.0320 O.2        1 ASPA      0.0000
     10 H1          -2.9578     1.2785    -1.8007 H          1 ASPA      0.0000
     11 H2          -3.0079     1.1240    -0.0784 H          1 ASPA      0.0000
     12 H3          -1.4784    -1.1691     0.5189 H          1 ASPA      0.0000
     13 H4          -0.9978     0.4551     1.0541 H          1 ASPA      0.0000
     14 H5           0.7600    -1.3120    -0.7603 H          1 ASPA      0.0000
     15 H6           0.9677    -0.9188     2.1573 H          1 ASPA      0.0000
     16 H7           2.0082    -1.7260     1.2064 H          1 ASPA      0.0000
     17 H8           3.2654     1.0767    -0.1205 H          1 ASPA      0.0000
@<TRIPOS>BOND
     1     1     2 1
     2     2     3 2
     3     2     4 1
     4     4     5 1
     5     5     6 1
     6     5     7 1
     7     7     8 2
     8     7     9 1
     9     1    10 1
    10     1    11 1
    11     4    12 1
    12     4    13 1
    13     5    14 1
    14     6    15 1
    15     6    16 1
    16     9    17 1
