@<TRIPOS>MOLECULE
ATP (ATPK)
43 45 1 0 0
SMALL
NO_CHARGES


@<TRIPOS>ATOM
      1 N1          -5.7132     0.2376     3.5615 N.2        1 ATPK      0.0000
      2 C1          -4.9319     0.9820     2.6708 C.ar       1 ATPK      0.0000
      3 N2          -5.2473     2.2849     2.4835 N.ar       1 ATPK      0.0000
      4 C2          -4.4664     2.9978     1.6395 C.ar       1 ATPK      0.0000
      5 N3          -3.3838     2.6011     0.9506 N.ar       1 ATPK      0.0000
      6 C3          -3.0967     1.3088     1.1946 C.ar       1 ATPK      0.0000
      7 N4          -2.0550     0.5537     0.7194 N.ar       1 ATPK      0.0000
      8 C4          -2.1865    -0.7063     1.2553 C.ar       1 ATPK      0.0000
      9 N5          -3.2430    -0.8053     2.0447 N.ar       1 ATPK      0.0000
     10 C5          -3.8088     0.4491     2.0145 C.ar       1 ATPK      0.0000
     11 C6          -1.0107     1.0006    -0.1845 C.3        1 ATPK      0.0000
     12 O1          -1.0516     0.1757    -1.3604 O.3        1 ATPK      0.0000
     13 C7           0.3442    -0.0668    -1.7682 C.3        1 ATPK      0.0000
     14 C8           0.5842    -1.5783    -1.6857 C.3        1 ATPK      0.0000
     15 O2           0.7259    -1.9916    -0.3296 O.3        1 ATPK      0.0000
     16 P1           2.1031    -2.8176     0.0305 P.3        1 ATPK      0.0000
     17 O3           1.9476    -4.1413    -0.7010 O.2        1 ATPK      0.0000
     18 O4           2.1343    -2.8236     1.5457 O.3        1 ATPK     -1.0000
     19 O5           3.1353    -1.8279    -0.6606 O.3        1 ATPK      0.0000
     20 P2           4.6763    -1.4357    -0.5809 P.3        1 ATPK      0.0000
     21 O6           4.9304    -0.5484     0.6307 O.2        1 ATPK      0.0000
     22 O7           5.5359    -2.6973    -0.6718 O.3        1 ATPK     -1.0000
     23 O8           4.9029    -0.6011    -1.9393 O.3        1 ATPK      0.0000
     24 P3           4.1746     0.4835    -2.8851 P.3        1 ATPK      0.0000
     25 O9           3.8145     1.7159    -2.0554 O.2        1 ATPK      0.0000
     26 O10          5.2003     0.8161    -3.9775 O.3        1 ATPK     -1.0000
     27 O11          2.9220    -0.1751    -3.4582 O.3        1 ATPK     -1.0000
     28 C9           1.2253     0.7861    -0.8484 C.3        1 ATPK      0.0000
     29 O12          1.4154     2.1147    -1.3946 O.3        1 ATPK      0.0000
     30 C10          0.3926     0.9572     0.4095 C.3        1 ATPK      0.0000
     31 O13          0.7071     2.1800     1.1083 O.3        1 ATPK      0.0000
     32 H1          -6.0938     0.8552     4.2625 H          1 ATPK      0.0000
     33 H2          -5.1686    -0.5559     3.8963 H          1 ATPK      0.0000
     34 H3          -4.7491     4.0369     1.4993 H          1 ATPK      0.0000
     35 H4          -1.4781    -1.4999     1.0326 H          1 ATPK      0.0000
     36 H5          -1.2654     2.0219    -0.4970 H          1 ATPK      0.0000
     37 H6           0.4032     0.2574    -2.8135 H          1 ATPK      0.0000
     38 H7          -0.2849    -2.1133    -2.0864 H          1 ATPK      0.0000
     39 H8           1.4437    -1.8749    -2.2909 H          1 ATPK      0.0000
     40 H9           2.2073     0.3753    -0.6201 H          1 ATPK      0.0000
     41 H10          2.3521     2.0333    -1.7814 H          1 ATPK      0.0000
     42 H11          0.5346     0.1207     1.0975 H          1 ATPK      0.0000
     43 H12          1.4222     2.5594     0.5431 H          1 ATPK      0.0000
@<TRIPOS>BOND
     1     1     2 1
     2     2     3 ar
     3     3     4 ar
     4     4     5 ar
     5     5     6 ar
     6     6     7 ar
     7     7     8 ar
     8     8     9 ar
     9     9    10 ar
    10     7    11 1
    11    11    12 1
    12    12    13 1
    13    13    14 1
    14    14    15 1
    15    15    16 1
    16    16    17 2
    17    16    18 1
    18    16    19 1
    19    19    20 1
    20    20    21 2
    21    20    22 1
    22    20    23 1
    23    23    24 1
    24    24    25 2
    25    24    26 1
    26    24    27 1
    27    13    28 1
    28    28    29 1
    29    28    30 1
    30    30    31 1
    31    10     2 ar
    32    30    11 1
    33    10     6 ar
    34     1    32 1
    35     1    33 1
    36     4    34 1
    37     8    35 1
    38    11    36 1
    39    13    37 1
    40    14    38 1
    41    14    39 1
    42    28    40 1
    43    29    41 1
    44    30    42 1
    45    31    43 1
