@<TRIPOS>MOLECULE
β-karoteeni (BEETAKAROTEENI)
96 97 1 0 0
SMALL
NO_CHARGES


@<TRIPOS>ATOM
      1 C1          12.7763    -2.4678     0.2473 C.3        1 BEET      0.0000
      2 C2          12.5230    -0.9780     0.3501 C.2        1 BEET      0.0000
      3 C3          11.3132    -0.4223     0.6180 C.2        1 BEET      0.0000
      4 C4          11.1123     1.1042     0.7754 C.3        1 BEET      0.0000
      5 C5          12.4823     1.7921     1.0432 C.3        1 BEET      0.0000
      6 C6          13.5563     1.3481     0.0572 C.3        1 BEET      0.0000
      7 C7          13.7795    -0.1546     0.1433 C.3        1 BEET      0.0000
      8 C8          10.4925     1.7023    -0.5043 C.3        1 BEET      0.0000
      9 C9          10.1906     1.4708     1.9610 C.3        1 BEET      0.0000
     10 C10         10.1643    -1.2786     0.8989 C.2        1 BEET      0.0000
     11 C11          9.0609    -1.3614     0.1397 C.2        1 BEET      0.0000
     12 C12          7.8636    -2.1467     0.4511 C.2        1 BEET      0.0000
     13 C13          6.7049    -1.8116    -0.1552 C.2        1 BEET      0.0000
     14 C14          5.3889    -2.3654     0.1021 C.2        1 BEET      0.0000
     15 C15          4.2750    -1.8324    -0.4282 C.2        1 BEET      0.0000
     16 C16          2.8877    -2.2181    -0.1424 C.2        1 BEET      0.0000
     17 C17          1.9034    -1.4911    -0.7153 C.2        1 BEET      0.0000
     18 C18          0.4744    -1.5964    -0.4914 C.2        1 BEET      0.0000
     19 C19         -0.4049    -0.7744    -1.0880 C.2        1 BEET      0.0000
     20 C20         -1.8288    -0.7896    -0.8231 C.2        1 BEET      0.0000
     21 C21         -2.7681    -0.0272    -1.4250 C.2        1 BEET      0.0000
     22 C22         -4.1555    -0.1251    -0.9620 C.2        1 BEET      0.0000
     23 C23         -5.1236     0.7838    -1.1843 C.2        1 BEET      0.0000
     24 C24         -6.4842     0.6278    -0.7021 C.2        1 BEET      0.0000
     25 C25         -7.4633     1.5630    -0.7231 C.2        1 BEET      0.0000
     26 C26         -8.8008     1.1824    -0.2609 C.2        1 BEET      0.0000
     27 C27         -9.8781     1.9791    -0.2053 C.2        1 BEET      0.0000
     28 C28        -11.2281     1.5992     0.2103 C.2        1 BEET      0.0000
     29 C29        -11.9132     2.4233     1.0434 C.2        1 BEET      0.0000
     30 C30        -13.3636     2.2040     1.4211 C.3        1 BEET      0.0000
     31 C31        -13.9637     0.8843     0.9631 C.3        1 BEET      0.0000
     32 C32        -13.4460     0.5085    -0.4148 C.3        1 BEET      0.0000
     33 C33        -11.8967     0.3641    -0.4412 C.3        1 BEET      0.0000
     34 C34        -11.5191    -0.9260     0.3210 C.3        1 BEET      0.0000
     35 C35        -11.5189     0.1978    -1.9312 C.3        1 BEET      0.0000
     36 C36        -11.3276     3.6607     1.6854 C.3        1 BEET      0.0000
     37 C37         -7.2789     2.9874    -1.2042 C.3        1 BEET      0.0000
     38 C38         -2.5041     0.9092    -2.5799 C.3        1 BEET      0.0000
     39 C39          2.6629    -3.3640     0.8066 C.3        1 BEET      0.0000
     40 C40          8.0105    -3.2596     1.4594 C.3        1 BEET      0.0000
     41 H1          13.4034    -2.6864    -0.6210 H          1 BEET      0.0000
     42 H2          11.8599    -3.0506     0.1130 H          1 BEET      0.0000
     43 H3          13.2914    -2.8267     1.1437 H          1 BEET      0.0000
     44 H4          12.3772     2.8846     0.9932 H          1 BEET      0.0000
     45 H5          12.8231     1.5591     2.0628 H          1 BEET      0.0000
     46 H6          14.4963     1.8721     0.2675 H          1 BEET      0.0000
     47 H7          13.2711     1.6260    -0.9654 H          1 BEET      0.0000
     48 H8          14.2890    -0.4776    -0.7727 H          1 BEET      0.0000
     49 H9          14.4607    -0.3611     0.9771 H          1 BEET      0.0000
     50 H10         10.5142     2.7968    -0.4790 H          1 BEET      0.0000
     51 H11          9.4436     1.4170    -0.6166 H          1 BEET      0.0000
     52 H12         11.0190     1.3801    -1.4095 H          1 BEET      0.0000
     53 H13         10.1473     2.5580     2.0945 H          1 BEET      0.0000
     54 H14         10.5556     1.0312     2.8973 H          1 BEET      0.0000
     55 H15          9.1619     1.1243     1.8051 H          1 BEET      0.0000
     56 H16         10.2592    -1.8635     1.8148 H          1 BEET      0.0000
     57 H17          9.0070    -0.7572    -0.7644 H          1 BEET      0.0000
     58 H18          6.7218    -0.9900    -0.8689 H          1 BEET      0.0000
     59 H19          5.3155    -3.1967     0.7845 H          1 BEET      0.0000
     60 H20          4.3951    -0.9788    -1.0978 H          1 BEET      0.0000
     61 H21          2.1832    -0.6888    -1.3999 H          1 BEET      0.0000
     62 H22          0.1172    -2.3238     0.2255 H          1 BEET      0.0000
     63 H23         -0.0291    -0.0310    -1.7814 H          1 BEET      0.0000
     64 H24         -2.1291    -1.4424    -0.0079 H          1 BEET      0.0000
     65 H25         -4.3925    -1.0109    -0.3717 H          1 BEET      0.0000
     66 H26         -4.8996     1.6872    -1.7387 H          1 BEET      0.0000
     67 H27         -6.7164    -0.3588    -0.2960 H          1 BEET      0.0000
     68 H28         -8.8987     0.1501     0.0639 H          1 BEET      0.0000
     69 H29         -9.7855     3.0317    -0.4810 H          1 BEET      0.0000
     70 H30        -13.9483     3.0241     0.9884 H          1 BEET      0.0000
     71 H31        -13.4772     2.2741     2.5099 H          1 BEET      0.0000
     72 H32        -13.7355     0.0989     1.6884 H          1 BEET      0.0000
     73 H33        -15.0553     0.9594     0.9394 H          1 BEET      0.0000
     74 H34        -13.7651     1.2757    -1.1363 H          1 BEET      0.0000
     75 H35        -13.9227    -0.4289    -0.7357 H          1 BEET      0.0000
     76 H36        -12.1150    -1.7746    -0.0320 H          1 BEET      0.0000
     77 H37        -10.4747    -1.2044     0.1714 H          1 BEET      0.0000
     78 H38        -11.6732    -0.8227     1.4012 H          1 BEET      0.0000
     79 H39        -10.4787    -0.1265    -2.0631 H          1 BEET      0.0000
     80 H40        -11.6488     1.1352    -2.4896 H          1 BEET      0.0000
     81 H41        -12.1476    -0.5625    -2.4093 H          1 BEET      0.0000
     82 H42        -11.5194     4.5383     1.0615 H          1 BEET      0.0000
     83 H43        -11.7764     3.8383     2.6688 H          1 BEET      0.0000
     84 H44        -10.2508     3.5778     1.8580 H          1 BEET      0.0000
     85 H45         -6.2513     3.2334    -1.4754 H          1 BEET      0.0000
     86 H46         -7.5537     3.6950    -0.4133 H          1 BEET      0.0000
     87 H47         -7.9005     3.1888    -2.0868 H          1 BEET      0.0000
     88 H48         -2.6077     1.9568    -2.2639 H          1 BEET      0.0000
     89 H49         -3.2136     0.7185    -3.3950 H          1 BEET      0.0000
     90 H50         -1.5065     0.7917    -3.0148 H          1 BEET      0.0000
     91 H51          3.0753    -3.1367     1.7969 H          1 BEET      0.0000
     92 H52          1.6093    -3.6133     0.9463 H          1 BEET      0.0000
     93 H53          3.1530    -4.2705     0.4280 H          1 BEET      0.0000
     94 H54          8.0909    -2.8486     2.4779 H          1 BEET      0.0000
     95 H55          7.1727    -3.9637     1.4444 H          1 BEET      0.0000
     96 H56          8.9040    -3.8620     1.2477 H          1 BEET      0.0000
@<TRIPOS>BOND
     1     1     2 1
     2     2     3 2
     3     3     4 1
     4     4     5 1
     5     5     6 1
     6     6     7 1
     7     4     8 1
     8     4     9 1
     9     3    10 1
    10    10    11 2
    11    11    12 1
    12    12    13 2
    13    13    14 1
    14    14    15 2
    15    15    16 1
    16    16    17 2
    17    17    18 1
    18    18    19 2
    19    19    20 1
    20    20    21 2
    21    21    22 1
    22    22    23 2
    23    23    24 1
    24    24    25 2
    25    25    26 1
    26    26    27 2
    27    27    28 1
    28    28    29 2
    29    29    30 1
    30    30    31 1
    31    31    32 1
    32    32    33 1
    33    33    34 1
    34    33    35 1
    35    29    36 1
    36    25    37 1
    37    21    38 1
    38    16    39 1
    39    12    40 1
    40     7     2 1
    41    33    28 1
    42     1    41 1
    43     1    42 1
    44     1    43 1
    45     5    44 1
    46     5    45 1
    47     6    46 1
    48     6    47 1
    49     7    48 1
    50     7    49 1
    51     8    50 1
    52     8    51 1
    53     8    52 1
    54     9    53 1
    55     9    54 1
    56     9    55 1
    57    10    56 1
    58    11    57 1
    59    13    58 1
    60    14    59 1
    61    15    60 1
    62    17    61 1
    63    18    62 1
    64    19    63 1
    65    20    64 1
    66    22    65 1
    67    23    66 1
    68    24    67 1
    69    26    68 1
    70    27    69 1
    71    30    70 1
    72    30    71 1
    73    31    72 1
    74    31    73 1
    75    32    74 1
    76    32    75 1
    77    34    76 1
    78    34    77 1
    79    34    78 1
    80    35    79 1
    81    35    80 1
    82    35    81 1
    83    36    82 1
    84    36    83 1
    85    36    84 1
    86    37    85 1
    87    37    86 1
    88    37    87 1
    89    38    88 1
    90    38    89 1
    91    38    90 1
    92    39    91 1
    93    39    92 1
    94    39    93 1
    95    40    94 1
    96    40    95 1
    97    40    96 1
