@<TRIPOS>MOLECULE
N-bentsylideenimetyyliamiini (BENTSYLIDEENIMETYYLIAMIINI)
18 18 1 0 0
SMALL
NO_CHARGES


@<TRIPOS>ATOM
      1 C1          -3.4550     0.4765     0.0435 C.3        1 BENT      0.0000
      2 N1          -2.0373     0.7089     0.3069 N.2        1 BENT      0.0000
      3 C2          -1.2700    -0.1849    -0.2207 C.2        1 BENT      0.0000
      4 C3           0.1984    -0.1409    -0.0772 C.ar       1 BENT      0.0000
      5 C4           0.8170     0.8838     0.6444 C.ar       1 BENT      0.0000
      6 C5           2.2070     0.9046     0.7665 C.ar       1 BENT      0.0000
      7 C6           2.9750    -0.0957     0.1693 C.ar       1 BENT      0.0000
      8 C7           2.3564    -1.1186    -0.5511 C.ar       1 BENT      0.0000
      9 C8           0.9660    -1.1440    -0.6763 C.ar       1 BENT      0.0000
     10 H1          -4.0415     1.2688     0.5187 H          1 BENT      0.0000
     11 H2          -3.6696     0.5012    -1.0302 H          1 BENT      0.0000
     12 H3          -3.7860    -0.4800     0.4621 H          1 BENT      0.0000
     13 H4          -1.6836    -1.0268    -0.8062 H          1 BENT      0.0000
     14 H5           0.2208     1.6647     1.1110 H          1 BENT      0.0000
     15 H6           2.6893     1.7010     1.3275 H          1 BENT      0.0000
     16 H7           4.0579    -0.0773     0.2659 H          1 BENT      0.0000
     17 H8           2.9591    -1.8958    -1.0146 H          1 BENT      0.0000
     18 H9           0.4963    -1.9454    -1.2395 H          1 BENT      0.0000
@<TRIPOS>BOND
     1     1     2 1
     2     2     3 2
     3     3     4 1
     4     4     5 ar
     5     5     6 ar
     6     6     7 ar
     7     7     8 ar
     8     8     9 ar
     9     9     4 ar
    10     1    10 1
    11     1    11 1
    12     1    12 1
    13     3    13 1
    14     5    14 1
    15     6    15 1
    16     7    16 1
    17     8    17 1
    18     9    18 1
