@<TRIPOS>MOLECULE
bentsoaatti (BENTSOAATTI)
14 14 1 0 0
SMALL
NO_CHARGES


@<TRIPOS>ATOM
      1 O1           2.8974     1.1679    -0.6347 O.2        1 BENT     -1.0000
      2 C1           2.3648     0.0357    -0.4048 C.2        1 BENT      0.0000
      3 O2           2.9765    -1.0792    -0.3708 O.2        1 BENT      0.0000
      4 C2           0.8695     0.0131    -0.1488 C.ar       1 BENT      0.0000
      5 C3           0.1998    -1.1936     0.1134 C.ar       1 BENT      0.0000
      6 C4          -1.1772    -1.2157     0.3493 C.ar       1 BENT      0.0000
      7 C5          -1.9074    -0.0288     0.3265 C.ar       1 BENT      0.0000
      8 C6          -1.2614     1.1789     0.0681 C.ar       1 BENT      0.0000
      9 C7           0.1157     1.1984    -0.1674 C.ar       1 BENT      0.0000
     10 H1           0.7709    -2.1207     0.1311 H          1 BENT      0.0000
     11 H2          -1.6713    -2.1611     0.5496 H          1 BENT      0.0000
     12 H3          -2.9769    -0.0449     0.5096 H          1 BENT      0.0000
     13 H4          -1.8215     2.1084     0.0483 H          1 BENT      0.0000
     14 H5           0.6209     2.1417    -0.3694 H          1 BENT      0.0000
@<TRIPOS>BOND
     1     1     2 1
     2     2     3 2
     3     2     4 1
     4     4     5 ar
     5     5     6 ar
     6     6     7 ar
     7     7     8 ar
     8     8     9 ar
     9     9     4 ar
    10     5    10 1
    11     6    11 1
    12     7    12 1
    13     8    13 1
    14     9    14 1
