@<TRIPOS>MOLECULE
1,3-bisfosfoglyseraatti (BPG13)
19 18 1 0 0
SMALL
NO_CHARGES


@<TRIPOS>ATOM
      1 O1          -1.4619    -2.0097     0.3152 O.2        1 BPG1      0.0000
      2 C1          -1.2543    -0.8671    -0.0855 C.2        1 BPG1      0.0000
      3 O2          -2.1607     0.1251    -0.2708 O.2        1 BPG1      0.0000
      4 P1          -3.7819     0.0309    -0.2221 P.3        1 BPG1      0.0000
      5 O3          -4.1784    -0.9741    -1.2986 O.2        1 BPG1      0.0000
      6 O4          -4.1574    -0.3612     1.2011 O.3        1 BPG1     -1.0000
      7 O5          -4.2281     1.4527    -0.5721 O.3        1 BPG1     -1.0000
      8 C2           0.1421    -0.3518    -0.5537 C.3        1 BPG1      0.0000
      9 O6           1.0660    -1.3686    -0.9647 O.3        1 BPG1      0.0000
     10 C3           0.7522     0.6352     0.4684 C.3        1 BPG1      0.0000
     11 O7           1.8194     0.0939     1.2490 O.3        1 BPG1      0.0000
     12 P2           3.3482     0.4120     0.7439 P.3        1 BPG1      0.0000
     13 O8           3.4713     1.9291     0.7708 O.2        1 BPG1      0.0000
     14 O9           3.3660    -0.1942    -0.6544 O.3        1 BPG1     -1.0000
     15 O10          4.2477    -0.2996     1.7448 O.3        1 BPG1     -1.0000
     16 H1          -0.0721     0.2115    -1.4721 H          1 BPG1      0.0000
     17 H2           1.9761    -0.9844    -0.7958 H          1 BPG1      0.0000
     18 H3          -0.0093     1.0049     1.1633 H          1 BPG1      0.0000
     19 H4           1.1153     1.5154    -0.0747 H          1 BPG1      0.0000
@<TRIPOS>BOND
     1     1     2 2
     2     2     3 1
     3     3     4 1
     4     4     5 2
     5     4     6 1
     6     4     7 1
     7     2     8 1
     8     8     9 1
     9     8    10 1
    10    10    11 1
    11    11    12 1
    12    12    13 2
    13    12    14 1
    14    12    15 1
    15     8    16 1
    16     9    17 1
    17    10    18 1
    18    10    19 1
