@<TRIPOS>MOLECULE
dietyylieetteri (DIETYYLIEETTERI)
15 14 1 0 0
SMALL
NO_CHARGES


@<TRIPOS>ATOM
      1 C1          -2.0852     0.1386    -0.5056 C.3        1 DIET      0.0000
      2 C2          -1.1087    -0.9584    -0.1209 C.3        1 DIET      0.0000
      3 O1           0.2148    -0.6599    -0.5596 O.3        1 DIET      0.0000
      4 C3           0.8969     0.2617     0.2872 C.3        1 DIET      0.0000
      5 C4           2.3057     0.4423    -0.2438 C.3        1 DIET      0.0000
      6 H1          -1.8704     1.0686     0.0290 H          1 DIET      0.0000
      7 H2          -2.0160     0.3590    -1.5757 H          1 DIET      0.0000
      8 H3          -3.1112    -0.1598    -0.2712 H          1 DIET      0.0000
      9 H4          -1.4063    -1.8865    -0.6200 H          1 DIET      0.0000
     10 H5          -1.1259    -1.1480     0.9583 H          1 DIET      0.0000
     11 H6           0.9347    -0.1306     1.3092 H          1 DIET      0.0000
     12 H7           0.3813     1.2268     0.2909 H          1 DIET      0.0000
     13 H8           2.8350    -0.5161    -0.2670 H          1 DIET      0.0000
     14 H9           2.2849     0.8199    -1.2714 H          1 DIET      0.0000
     15 H10          2.8704     1.1424     0.3783 H          1 DIET      0.0000
@<TRIPOS>BOND
     1     1     2 1
     2     2     3 1
     3     3     4 1
     4     4     5 1
     5     1     6 1
     6     1     7 1
     7     1     8 1
     8     2     9 1
     9     2    10 1
    10     4    11 1
    11     4    12 1
    12     5    13 1
    13     5    14 1
    14     5    15 1
