@<TRIPOS>MOLECULE
dietyylidisulfidi (DIETYYLIDISULFIDI)
16 15 1 0 0
SMALL
NO_CHARGES


@<TRIPOS>ATOM
      1 C1          -2.8236    -0.0045     0.2889 C.3        1 DIET      0.0000
      2 C2          -1.7014     0.3732    -0.6619 C.3        1 DIET      0.0000
      3 S1          -0.4387     1.4243     0.1301 S.3        1 DIET      0.0000
      4 S2           0.4582     0.1523     1.4783 S.3        1 DIET      0.0000
      5 C3           1.6971    -0.7246     0.4670 C.3        1 DIET      0.0000
      6 C4           2.8258     0.1841     0.0128 C.3        1 DIET      0.0000
      7 H1          -3.3080     0.8829     0.7099 H          1 DIET      0.0000
      8 H2          -2.4710    -0.6330     1.1123 H          1 DIET      0.0000
      9 H3          -3.5885    -0.5737    -0.2499 H          1 DIET      0.0000
     10 H4          -1.2274    -0.5199    -1.0813 H          1 DIET      0.0000
     11 H5          -2.1176     0.9408    -1.5007 H          1 DIET      0.0000
     12 H6           2.1104    -1.5291     1.0842 H          1 DIET      0.0000
     13 H7           1.2063    -1.1963    -0.3902 H          1 DIET      0.0000
     14 H8           3.3270     0.6569     0.8641 H          1 DIET      0.0000
     15 H9           3.5765    -0.4015    -0.5285 H          1 DIET      0.0000
     16 H10          2.4752     0.9682    -0.6650 H          1 DIET      0.0000
@<TRIPOS>BOND
     1     1     2 1
     2     2     3 1
     3     3     4 1
     4     4     5 1
     5     5     6 1
     6     1     7 1
     7     1     8 1
     8     1     9 1
     9     2    10 1
    10     2    11 1
    11     5    12 1
    12     5    13 1
    13     6    14 1
    14     6    15 1
    15     6    16 1
