@<TRIPOS>MOLECULE
dihydroksiasetoni (DIHYDROKSIASETONI)
12 11 1 0 0
SMALL
NO_CHARGES


@<TRIPOS>ATOM
      1 O1           2.2676    -0.7509     0.6071 O.3        1 DIHY      0.0000
      2 C1           1.0059    -0.1247     0.7911 C.3        1 DIHY      0.0000
      3 C2           0.0787    -0.3706    -0.3898 C.2        1 DIHY      0.0000
      4 O2           0.5011    -0.8343    -1.4523 O.2        1 DIHY      0.0000
      5 C3          -1.3724     0.0343    -0.2097 C.3        1 DIHY      0.0000
      6 O3          -1.5189     1.4416    -0.1963 O.3        1 DIHY      0.0000
      7 H1           2.4093    -0.8062    -0.3593 H          1 DIHY      0.0000
      8 H2           1.1619     0.9514     0.9034 H          1 DIHY      0.0000
      9 H3           0.5552    -0.5310     1.7002 H          1 DIHY      0.0000
     10 H4          -1.9760    -0.3864    -1.0200 H          1 DIHY      0.0000
     11 H5          -1.7440    -0.3755     0.7340 H          1 DIHY      0.0000
     12 H6          -1.3683     1.7524    -1.1083 H          1 DIHY      0.0000
@<TRIPOS>BOND
     1     1     2 1
     2     2     3 1
     3     3     4 2
     4     3     5 1
     5     5     6 1
     6     1     7 1
     7     2     8 1
     8     2     9 1
     9     5    10 1
    10     5    11 1
    11     6    12 1
