@<TRIPOS>MOLECULE
dimetyylidifosfaatti (DIMETYYLIDIFOSFAATTI)
17 16 1 0 0
SMALL
NO_CHARGES


@<TRIPOS>ATOM
      1 C1           3.3622    -0.2832     0.3945 C.3        1 DIME      0.0000
      2 O1           1.9979    -0.2883     0.0560 O.3        1 DIME      0.0000
      3 P1           1.3830     1.1508    -0.3734 P.3        1 DIME      0.0000
      4 O2           1.6313     2.1340     0.7527 O.2        1 DIME      0.0000
      5 O3           1.9587     1.4917    -1.7380 O.3        1 DIME     -1.0000
      6 O4          -0.1718     0.8232    -0.5275 O.3        1 DIME      0.0000
      7 P2          -1.1007    -0.2918     0.1376 P.3        1 DIME      0.0000
      8 O5          -0.9601    -1.6331    -0.5544 O.2        1 DIME      0.0000
      9 O6          -1.1443    -0.2130     1.6479 O.3        1 DIME     -1.0000
     10 O7          -2.5451     0.2975    -0.3703 O.3        1 DIME      0.0000
     11 C2          -3.6658    -0.4368     0.0641 C.3        1 DIME      0.0000
     12 H1           3.6877    -1.3142     0.5563 H          1 DIME      0.0000
     13 H2           3.9608     0.1479    -0.4127 H          1 DIME      0.0000
     14 H3           3.5230     0.2805     1.3175 H          1 DIME      0.0000
     15 H4          -3.7494    -0.4013     1.1536 H          1 DIME      0.0000
     16 H5          -3.6026    -1.4756    -0.2710 H          1 DIME      0.0000
     17 H6          -4.5649     0.0116    -0.3666 H          1 DIME      0.0000
@<TRIPOS>BOND
     1     1     2 1
     2     2     3 1
     3     3     4 2
     4     3     5 1
     5     3     6 1
     6     6     7 1
     7     7     8 2
     8     7     9 1
     9     7    10 1
    10    10    11 1
    11     1    12 1
    12     1    13 1
    13     1    14 1
    14    11    15 1
    15    11    16 1
    16    11    17 1
