@<TRIPOS>MOLECULE
dimetyylidisulfidi (DMDS)
10 9 1 0 0
SMALL
NO_CHARGES


@<TRIPOS>ATOM
      1 C1           1.8215    -0.2619    -0.3650 C.3        1 DMDS      0.0000
      2 S1           0.9243     0.9396     0.6489 S.3        1 DMDS      0.0000
      3 S2          -0.6811     1.3972    -0.5536 S.3        1 DMDS      0.0000
      4 C2          -1.8417     0.0677    -0.1512 C.3        1 DMDS      0.0000
      5 H1           1.2065    -1.1461    -0.5517 H          1 DMDS      0.0000
      6 H2           2.7212    -0.5773     0.1705 H          1 DMDS      0.0000
      7 H3           2.1269     0.1873    -1.3138 H          1 DMDS      0.0000
      8 H4          -1.4201    -0.9062    -0.4136 H          1 DMDS      0.0000
      9 H5          -2.0981     0.0893     0.9113 H          1 DMDS      0.0000
     10 H6          -2.7593     0.2103    -0.7285 H          1 DMDS      0.0000
@<TRIPOS>BOND
     1     1     2 1
     2     2     3 1
     3     3     4 1
     4     1     5 1
     5     1     6 1
     6     1     7 1
     7     4     8 1
     8     4     9 1
     9     4    10 1
