@<TRIPOS>MOLECULE
dimetyylieetteri (DME)
9 8 1 0 0
SMALL
NO_CHARGES


@<TRIPOS>ATOM
      1 C1          -1.1715     0.0873    -0.0487 C.3        1 DME       0.0000
      2 O1           0.0070     0.0253    -0.8405 O.3        1 DME       0.0000
      3 C2           1.1722    -0.0848    -0.0344 C.3        1 DME       0.0000
      4 H1          -2.0323     0.1708    -0.7176 H          1 DME       0.0000
      5 H2          -1.2800    -0.8232     0.5487 H          1 DME       0.0000
      6 H3          -1.1490     0.9657     0.6036 H          1 DME       0.0000
      7 H4           1.2703     0.7881     0.6183 H          1 DME       0.0000
      8 H5           2.0439    -0.1284    -0.6928 H          1 DME       0.0000
      9 H6           1.1394    -1.0008     0.5634 H          1 DME       0.0000
@<TRIPOS>BOND
     1     1     2 1
     2     2     3 1
     3     1     4 1
     4     1     5 1
     5     1     6 1
     6     3     7 1
     7     3     8 1
     8     3     9 1
