@<TRIPOS>MOLECULE
DNA (1d28)
1015 988 109 0 0
NUCLEIC_ACID
NO_CHARGES


@<TRIPOS>ATOM
      1 O5'        19.6230   34.4650   23.5890 O.3       1  DC    0.0000
      2 C5'        20.3670   33.7340   24.5800 C.3       1  DC    0.0000
      3 C4'        20.3960   32.2630   24.2910 C.3       1  DC    0.0000
      4 O4'        19.3660   31.5200   24.9550 O.3       1  DC    0.0000
      5 C3'        20.3300   31.8020   22.8470 C.3       1  DC    0.0000
      6 O3'        21.3480   30.8130   22.5580 O.3       1  DC    0.0000
      7 C2'        18.9520   31.1110   22.7810 C.3       1  DC    0.0000
      8 C1'        19.1230   30.3560   24.1070 C.3       1  DC    0.0000
      9 N1         17.9180   29.5960   24.4030 N.am      1  DC    0.0000
     10 C2         18.0570   28.3420   24.9870 C.2       1  DC    0.0000
     11 O2         19.1850   27.8880   25.2700 O.2       1  DC    0.0000
     12 N3         16.9070   27.6430   25.2440 N.2       1  DC    0.0000
     13 C4         15.6730   28.1210   24.9550 C.2       1  DC    0.0000
     14 N4         14.5810   27.4060   25.2300 N.pl3     1  DC    0.0000
     15 C5         15.5520   29.3960   24.3570 C.2       1  DC    0.0000
     16 C6         16.6770   30.0740   24.1010 C.2       1  DC    0.0000
     17 H5'        21.3904   34.1088   24.5984 H         1  DC    0.0000
     18 H5''       19.9116   33.8954   25.5571 H         1  DC    0.0000
     19 H4'        21.3420   31.8931   24.6863 H         1  DC    0.0000
     20 H3'        20.3863   32.6443   22.1574 H         1  DC    0.0000
     21 H2'        18.1209   31.8161   22.7966 H         1  DC    0.0000
     22 H2''       18.8844   30.4277   21.9345 H         1  DC    0.0000
     23 H1'        19.9973   29.7057   24.0763 H         1  DC    0.0000
     24 H5         14.5840   29.8092   24.1148 H         1  DC    0.0000
     25 H6         16.5985   31.0445   23.6337 H         1  DC    0.0000
     26 H41        14.6682   26.4954   25.6582 H         1  DC    0.0000
     27 H42        13.6670   27.7752   25.0100 H         1  DC    0.0000
     28 HO5'       19.4284   35.3452   23.9191 H         1  DC    0.0000
     29 P          22.0760   31.0260   21.1390 P.3       2  DG    0.0000
     30 OP1        22.4700   32.4270   20.8500 O.co2     2  DG    0.0000
     31 OP2        20.9270   30.6820   20.1800 O.co2     2  DG    0.0000
     32 O5'        23.2340   29.9350   21.1190 O.3       2  DG    0.0000
     33 C5'        23.9200   29.3180   22.2290 C.3       2  DG    0.0000
     34 C4'        23.9130   27.8190   22.0130 C.3       2  DG    0.0000
     35 O4'        22.7930   27.2020   22.6100 O.3       2  DG    0.0000
     36 C3'        23.9800   27.3080   20.5880 C.3       2  DG    0.0000
     37 O3'        25.0770   26.3730   20.4040 O.3       2  DG    0.0000
     38 C2'        22.6170   26.6910   20.3380 C.3       2  DG    0.0000
     39 C1'        22.1510   26.2910   21.7170 C.3       2  DG    0.0000
     40 N9         20.6810   26.3690   21.7960 N.ar      2  DG    0.0000
     41 C8         19.8390   27.3820   21.4020 C.ar      2  DG    0.0000
     42 N7         18.5650   27.1280   21.5990 N.ar      2  DG    0.0000
     43 C5         18.5650   25.8580   22.1700 C.ar      2  DG    0.0000
     44 C6         17.5100   25.0210   22.6100 C.2       2  DG    0.0000
     45 O6         16.3000   25.2490   22.5970 O.2       2  DG    0.0000
     46 N1         17.8990   23.8110   23.1160 N.am      2  DG    0.0000
     47 C2         19.1380   23.4440   23.1950 C.2       2  DG    0.0000
     48 N2         19.2270   22.2840   23.7200 N.pl3     2  DG    0.0000
     49 N3         20.2450   24.1950   22.7870 N.2       2  DG    0.0000
     50 C4         19.8560   25.3800   22.2950 C.ar      2  DG    0.0000
     51 H5'        24.9473   29.6795   22.2752 H         2  DG    0.0000
     52 H5''       23.4041   29.5576   23.1588 H         2  DG    0.0000
     53 H4'        24.7923   27.4277   22.5246 H         2  DG    0.0000
     54 H3'        24.1166   28.1532   19.9134 H         2  DG    0.0000
     55 H2'        21.9369   27.4171   19.8928 H         2  DG    0.0000
     56 H2''       22.7084   25.8134   19.6980 H         2  DG    0.0000
     57 H1'        22.4767   25.2736   21.9337 H         2  DG    0.0000
     58 H8         20.1937   28.3055   20.9686 H         2  DG    0.0000
     59 H1         17.1864   23.1744   23.4432 H         2  DG    0.0000
     60 H21        18.3912   21.7910   24.0001 H         2  DG    0.0000
     61 H22        20.1332   21.8591   23.8553 H         2  DG    0.0000
     62 P          25.2210   25.4700   19.1170 P.3       3  DT    0.0000
     63 OP1        26.6140   25.3110   18.5650 O.co2     3  DT    0.0000
     64 OP2        24.4700   26.2910   18.0530 O.co2     3  DT    0.0000
     65 O5'        24.4500   24.1510   19.3790 O.3       3  DT    0.0000
     66 C5'        25.1070   22.9050   19.7400 C.3       3  DT    0.0000
     67 C4'        23.9750   21.9160   19.9240 C.3       3  DT    0.0000
     68 O4'        22.7360   22.5570   20.1340 O.3       3  DT    0.0000
     69 C3'        23.7240   20.9640   18.7820 C.3       3  DT    0.0000
     70 O3'        24.0090   19.6280   19.2220 O.3       3  DT    0.0000
     71 C2'        22.2500   21.1320   18.4140 C.3       3  DT    0.0000
     72 C1'        21.6900   21.6300   19.7210 C.3       3  DT    0.0000
     73 N1         20.4680   22.4100   19.5240 N.am      3  DT    0.0000
     74 C2         19.2840   21.8300   19.8910 C.2       3  DT    0.0000
     75 O2         19.2220   20.6950   20.3580 O.2       3  DT    0.0000
     76 N3         18.1460   22.5700   19.7140 N.am      3  DT    0.0000
     77 C4         18.1560   23.8240   19.2080 C.2       3  DT    0.0000
     78 O4         17.0310   24.3790   19.1030 O.2       3  DT    0.0000
     79 C5         19.4050   24.4160   18.8340 C.2       3  DT    0.0000
     80 C7         19.4600   25.8010   18.2760 C.3       3  DT    0.0000
     81 C6         20.5130   23.6850   19.0110 C.2       3  DT    0.0000
     82 H5'        25.7772   22.5790   18.9446 H         3  DT    0.0000
     83 H5''       25.6584   23.0254   20.6725 H         3  DT    0.0000
     84 H4'        24.1951   21.3207   20.8101 H         3  DT    0.0000
     85 H3'        24.3553   21.2223   17.9318 H         3  DT    0.0000
     86 H2'        22.1163   21.8622   17.6158 H         3  DT    0.0000
     87 H2''       21.8066   20.1742   18.1418 H         3  DT    0.0000
     88 H1'        21.5498   20.8234   20.4406 H         3  DT    0.0000
     89 H3         17.2595   22.1612   19.9729 H         3  DT    0.0000
     90 H6         21.4695   24.1091   18.7431 H         3  DT    0.0000
     91 H71        19.7937   26.4921   19.0500 H         3  DT    0.0000
     92 H72        18.4681   26.0932   17.9314 H         3  DT    0.0000
     93 H73        20.1580   25.8281   17.4392 H         3  DT    0.0000
     94 P          24.6910   18.7090   18.0660 P.3       4  DG    0.0000
     95 OP1        25.6550   17.8880   18.9130 O.co2     4  DG    0.0000
     96 OP2        25.3430   19.5750   17.1000 O.co2     4  DG    0.0000
     97 O5'        23.3230   17.9170   17.6590 O.3       4  DG    0.0000
     98 C5'        22.6270   17.4800   18.8870 C.3       4  DG    0.0000
     99 C4'        21.2390   17.0630   18.4990 C.3       4  DG    0.0000
    100 O4'        20.2530   18.0600   18.5320 O.3       4  DG    0.0000
    101 C3'        21.1840   16.4300   17.0870 C.3       4  DG    0.0000
    102 O3'        20.5550   15.1310   17.2060 O.3       4  DG    0.0000
    103 C2'        20.4510   17.4590   16.2530 C.3       4  DG    0.0000
    104 C1'        19.5040   18.0720   17.2780 C.3       4  DG    0.0000
    105 N9         19.0610   19.4080   16.8640 N.ar      4  DG    0.0000
    106 C8         19.7920   20.4130   16.2930 C.ar      4  DG    0.0000
    107 N7         19.1080   21.5030   16.0230 N.ar      4  DG    0.0000
    108 C5         17.8290   21.1890   16.4770 C.ar      4  DG    0.0000
    109 C6         16.6270   21.9530   16.4770 C.2       4  DG    0.0000
    110 O6         16.4540   23.1090   16.0630 O.2       4  DG    0.0000
    111 N1         15.5350   21.2950   16.9950 N.am      4  DG    0.0000
    112 C2         15.6190   20.0210   17.4680 C.2       4  DG    0.0000
    113 N2         14.4570   19.5390   17.9280 N.pl3     4  DG    0.0000
    114 N3         16.7170   19.2690   17.4940 N.2       4  DG    0.0000
    115 C4         17.7850   19.9100   16.9890 C.ar      4  DG    0.0000
    116 H5'        23.1562   16.6386   19.3343 H         4  DG    0.0000
    117 H5''       22.5791   18.3053   19.5974 H         4  DG    0.0000
    118 H4'        20.9318   16.2907   19.2042 H         4  DG    0.0000
    119 H3'        22.1974   16.3084   16.7044 H         4  DG    0.0000
    120 H2'        21.1364   18.2046   15.8501 H         4  DG    0.0000
    121 H2''       19.8913   16.9772   15.4513 H         4  DG    0.0000
    122 H1'        18.6313   17.4273   17.3820 H         4  DG    0.0000
    123 H8         20.8468   20.3189   16.0808 H         4  DG    0.0000
    124 H1         14.6448   21.7712   17.0252 H         4  DG    0.0000
    125 H21        13.6268   20.1137   17.9036 H         4  DG    0.0000
    126 H22        14.4110   18.6008   18.2993 H         4  DG    0.0000
    127 P          20.4390   14.1630   15.9840 P.3       5  DA    0.0000
    128 OP1        21.5810   13.2270   15.7540 O.co2     5  DA    0.0000
    129 OP2        20.4880   15.2570   14.8550 O.co2     5  DA    0.0000
    130 O5'        18.9590   13.5990   15.9050 O.3       5  DA    0.0000
    131 C5'        18.0450   13.5250   17.0090 C.3       5  DA    0.0000
    132 C4'        16.7290   14.0690   16.4770 C.3       5  DA    0.0000
    133 O4'        16.8130   15.4660   16.2930 O.3       5  DA    0.0000
    134 C3'        16.2360   13.4760   15.1570 C.3       5  DA    0.0000
    135 O3'        14.8410   13.1170   15.2350 O.3       5  DA    0.0000
    136 C2'        16.5060   14.6200   14.1720 C.3       5  DA    0.0000
    137 C1'        16.1270   15.7970   15.0580 C.3       5  DA    0.0000
    138 N9         16.5930   17.0920   14.5520 N.ar      5  DA    0.0000
    139 C8         17.8490   17.4960   14.1980 C.ar      5  DA    0.0000
    140 N7         17.9110   18.7420   13.7840 N.ar      5  DA    0.0000
    141 C5         16.6050   19.1950   13.8960 C.ar      5  DA    0.0000
    142 C6         16.0250   20.4540   13.6270 C.ar      5  DA    0.0000
    143 N6         16.6970   21.5120   13.1670 N.pl3     5  DA    0.0000
    144 N1         14.6820   20.5390   13.8630 N.ar      5  DA    0.0000
    145 C2         13.9810   19.4770   14.3230 C.ar      5  DA    0.0000
    146 N3         14.4590   18.2640   14.5980 N.ar      5  DA    0.0000
    147 C4         15.7820   18.1990   14.3620 C.ar      5  DA    0.0000
    148 H5'        18.4010   14.1330   17.8407 H         5  DA    0.0000
    149 H5''       17.9224   12.4894   17.3263 H         5  DA    0.0000
    150 H4'        15.9643   13.8801   17.2305 H         5  DA    0.0000
    151 H3'        16.8334   12.6038   14.8915 H         5  DA    0.0000
    152 H2'        17.5521   14.6584   13.8682 H         5  DA    0.0000
    153 H2''       15.8484   14.5542   13.3052 H         5  DA    0.0000
    154 H1'        15.0490   15.8188   15.2179 H         5  DA    0.0000
    155 H8         18.7128   16.8501   14.2533 H         5  DA    0.0000
    156 H2         12.9238   19.6283   14.4841 H         5  DA    0.0000
    157 H61        17.7007   21.6198   13.2012 H         5  DA    0.0000
    158 H62        16.2424   22.4137   13.1860 H         5  DA    0.0000
    159 P          14.1940   11.9040   14.3360 P.3       6  DA    0.0000
    160 OP1        13.6510   10.8330   15.2490 O.co2     6  DA    0.0000
    161 OP2        15.3560   11.5070   13.5150 O.co2     6  DA    0.0000
    162 O5'        12.8930   12.5900   13.7180 O.3       6  DA    0.0000
    163 C5'        11.8180   13.0970   14.5070 C.3       6  DA    0.0000
    164 C4'        11.2080   14.2770   13.7710 C.3       6  DA    0.0000
    165 O4'        12.1670   15.2620   13.5080 O.3       6  DA    0.0000
    166 C3'        10.4890   13.9910   12.4640 C.3       6  DA    0.0000
    167 O3'         9.0990   14.3060   12.5430 O.3       6  DA    0.0000
    168 C2'        11.2820   14.7960   11.4270 C.3       6  DA    0.0000
    169 C1'        11.9290   15.8780   12.2010 C.3       6  DA    0.0000
    170 N9         13.2180   16.4420   11.7610 N.ar      6  DA    0.0000
    171 C8         14.4620   15.8620   11.7020 C.ar      6  DA    0.0000
    172 N7         15.4180   16.6790   11.3280 N.ar      6  DA    0.0000
    173 C5         14.7660   17.8960   11.1570 C.ar      6  DA    0.0000
    174 C6         15.2420   19.1790   10.7630 C.ar      6  DA    0.0000
    175 N6         16.4990   19.4730   10.4550 N.pl3     6  DA    0.0000
    176 N1         14.2960   20.1720   10.7110 N.ar      6  DA    0.0000
    177 C2         12.9920   19.9060   11.0130 C.ar      6  DA    0.0000
    178 N3         12.4820   18.7340   11.3740 N.ar      6  DA    0.0000
    179 C4         13.4230   17.7700   11.4270 C.ar      6  DA    0.0000
    180 H5'        12.1932   13.4212   15.4777 H         6  DA    0.0000
    181 H5''       11.0652   12.3208   14.6446 H         6  DA    0.0000
    182 H4'        10.4747   14.7227   14.4431 H         6  DA    0.0000
    183 H3'        10.5929   12.9305   12.2347 H         6  DA    0.0000
    184 H2'        12.0314   14.1680   10.9452 H         6  DA    0.0000
    185 H2''       10.6078   15.2174   10.6814 H         6  DA    0.0000
    186 H1'        11.2158   16.6930   12.3243 H         6  DA    0.0000
    187 H8         14.6377   14.8239   11.9425 H         6  DA    0.0000
    188 H2         12.3027   20.7352   10.9521 H         6  DA    0.0000
    189 H61        17.1797   18.7611   10.2313 H         6  DA    0.0000
    190 H62        16.7847   20.4417   10.4440 H         6  DA    0.0000
    191 P           7.9050   13.5130   11.7750 P.3       7  DT    0.0000
    192 OP1         6.6960   13.3090   12.6810 O.co2     7  DT    0.0000
    193 OP2         8.4100   12.3080   11.1510 O.co2     7  DT    0.0000
    194 O5'         7.3520   14.6690   10.7440 O.3       7  DT    0.0000
    195 C5'         7.3270   15.9810   11.4530 C.3       7  DT    0.0000
    196 C4'         7.8450   16.9650   10.4350 C.3       7  DT    0.0000
    197 O4'         9.2310   16.8590   10.1990 O.3       7  DT    0.0000
    198 C3'         7.1860   16.7770    9.0560 C.3       7  DT    0.0000
    199 O3'         6.1330   17.7130    8.9180 O.3       7  DT    0.0000
    200 C2'         8.3290   16.9450    8.0580 C.3       7  DT    0.0000
    201 C1'         9.4040   17.5370    8.8790 C.3       7  DT    0.0000
    202 N1         10.7990   17.3690    8.5040 N.am      7  DT    0.0000
    203 C2         11.4860   18.5130    8.1100 C.2       7  DT    0.0000
    204 O2         10.8910   19.5790    8.0180 O.2       7  DT    0.0000
    205 N3         12.8110   18.3990    7.8150 N.am      7  DT    0.0000
    206 C4         13.4850   17.2140    7.8940 C.2       7  DT    0.0000
    207 O4         14.7190   17.1860    7.5850 O.2       7  DT    0.0000
    208 C5         12.7620   16.0540    8.3270 C.2       7  DT    0.0000
    209 C7         13.4630   14.7310    8.4650 C.3       7  DT    0.0000
    210 C6         11.4560   16.1730    8.6220 C.2       7  DT    0.0000
    211 H5'         6.3115   16.2370   11.7553 H         7  DT    0.0000
    212 H5''        7.9848   15.9540   12.3217 H         7  DT    0.0000
    213 H4'         7.6296   17.9738   10.7873 H         7  DT    0.0000
    214 H3'         6.7848   15.7663    8.9808 H         7  DT    0.0000
    215 H2'         8.6348   15.9827    7.6475 H         7  DT    0.0000
    216 H2''        8.0402   17.6268    7.2581 H         7  DT    0.0000
    217 H1'         9.2020   18.6008    9.0040 H         7  DT    0.0000
    218 H3         13.3156   19.2248    7.5260 H         7  DT    0.0000
    219 H6         10.9112   15.3040    8.9604 H         7  DT    0.0000
    220 H71        14.5092   14.8421    8.1801 H         7  DT    0.0000
    221 H72        13.4023   14.3942    9.4999 H         7  DT    0.0000
    222 H73        12.9855   13.9973    7.8155 H         7  DT    0.0000
    223 P           5.0380   17.7980    7.8210 P.3       8  DT    0.0000
    224 OP1         3.8060   18.5790    8.3470 O.co2     8  DT    0.0000
    225 OP2         4.6930   16.3970    7.4670 O.co2     8  DT    0.0000
    226 O5'         5.6620   18.7660    6.7050 O.3       8  DT    0.0000
    227 C5'         5.7590   20.1430    7.1580 C.3       8  DT    0.0000
    228 C4'         6.7250   20.8660    6.2850 C.3       8  DT    0.0000
    229 O4'         8.0510   20.3560    6.3500 O.3       8  DT    0.0000
    230 C3'         6.3360   20.8990    4.8000 C.3       8  DT    0.0000
    231 O3'         6.5440   22.1940    4.2690 O.3       8  DT    0.0000
    232 C2'         7.3650   19.9140    4.1960 C.3       8  DT    0.0000
    233 C1'         8.5760   20.3920    4.9710 C.3       8  DT    0.0000
    234 N1          9.6990   19.4900    4.7940 N.am      8  DT    0.0000
    235 C2         10.9550   20.0330    4.5770 C.2       8  DT    0.0000
    236 O2         11.0740   21.2580    4.5250 O.2       8  DT    0.0000
    237 N3         12.0110   19.1790    4.4260 N.am      8  DT    0.0000
    238 C4         11.8650   17.8270    4.4850 C.2       8  DT    0.0000
    239 O4         12.8910   17.1000    4.3540 O.2       8  DT    0.0000
    240 C5         10.5690   17.2800    4.7150 C.2       8  DT    0.0000
    241 C7         10.3280   15.8010    4.8000 C.3       8  DT    0.0000
    242 C6          9.5430   18.1330    4.8600 C.2       8  DT    0.0000
    243 H5'         4.7806   20.6194    7.0954 H         8  DT    0.0000
    244 H5''        6.1110   20.1648    8.1894 H         8  DT    0.0000
    245 H4'         6.7604   21.8990    6.6311 H         8  DT    0.0000
    246 H3'         5.3123   20.5588    4.6437 H         8  DT    0.0000
    247 H2'         7.1192   18.8741    4.4109 H         8  DT    0.0000
    248 H2''        7.4896   20.0784    3.1257 H         8  DT    0.0000
    249 H1'         8.8449   21.4085    4.6838 H         8  DT    0.0000
    250 H3         12.9308   19.5640    4.2652 H         8  DT    0.0000
    251 H6          8.5557   17.7321    5.0357 H         8  DT    0.0000
    252 H71        11.2696   15.2702    4.6593 H         8  DT    0.0000
    253 H72         9.9159   15.5560    5.7789 H         8  DT    0.0000
    254 H73         9.6232   15.5025    4.0240 H         8  DT    0.0000
    255 P           5.6890   23.2480    3.4810 P.3       9  DC    0.0000
    256 OP1         5.3330   24.4360    4.3540 O.co2     9  DC    0.0000
    257 OP2         4.5500   22.4920    2.9290 O.co2     9  DC    0.0000
    258 O5'         6.8840   23.7460    2.4890 O.3       9  DC    0.0000
    259 C5'         7.9770   24.0970    3.4150 C.3       9  DC    0.0000
    260 C4'         9.1540   24.5020    2.5740 C.3       9  DC    0.0000
    261 O4'        10.1150   23.4970    2.4760 O.3       9  DC    0.0000
    262 C3'         8.8090   25.0000    1.1750 C.3       9  DC    0.0000
    263 O3'         9.3220   26.3110    0.9780 O.3       9  DC    0.0000
    264 C2'         9.3570   23.8690    0.3020 C.3       9  DC    0.0000
    265 C1'        10.4920   23.3170    1.0700 C.3       9  DC    0.0000
    266 N1         10.7000   21.8670    1.0050 N.am      9  DC    0.0000
    267 C2         12.0080   21.4500    0.7680 C.2       9  DC    0.0000
    268 O2         12.9150   22.2630    0.5650 O.2       9  DC    0.0000
    269 N3         12.2460   20.0980    0.7420 N.2       9  DC    0.0000
    270 C4         11.2500   19.1950    0.9720 C.2       9  DC    0.0000
    271 N4         11.5800   17.9090    0.9260 N.pl3     9  DC    0.0000
    272 C5          9.9320   19.6330    1.2280 C.2       9  DC    0.0000
    273 C6          9.7140   20.9640    1.2480 C.2       9  DC    0.0000
    274 H5'         7.6729   24.9246    4.0559 H         9  DC    0.0000
    275 H5''        8.2377   23.2323    4.0252 H         9  DC    0.0000
    276 H4'         9.6302   25.3357    3.0900 H         9  DC    0.0000
    277 H3'         7.7244   25.0289    1.0709 H         9  DC    0.0000
    278 H2'         8.5958   23.1059    0.1397 H         9  DC    0.0000
    279 H2''        9.7044   24.2641   -0.6526 H         9  DC    0.0000
    280 H1'        11.4134   23.8530    0.8424 H         9  DC    0.0000
    281 H5          9.1304   18.9302    1.4009 H         9  DC    0.0000
    282 H6          8.7196   21.3252    1.4650 H         9  DC    0.0000
    283 H41        12.5340   17.6390    0.7336 H         9  DC    0.0000
    284 H42        10.8768   17.2013    1.0834 H         9  DC    0.0000
    285 P           8.8690   27.3570   -0.1770 P.3      10  DA    0.0000
    286 OP1         9.1590   28.7500    0.3480 O.co2    10  DA    0.0000
    287 OP2         7.4270   27.1570   -0.4270 O.co2    10  DA    0.0000
    288 O5'         9.8150   26.9610   -1.4640 O.3      10  DA    0.0000
    289 C5'        11.2530   26.9040   -1.2150 C.3      10  DA    0.0000
    290 C4'        11.9760   26.4380   -2.4360 C.3      10  DA    0.0000
    291 O4'        12.3500   25.0570   -2.4300 O.3      10  DA    0.0000
    292 C3'        11.1960   26.5570   -3.7560 C.3      10  DA    0.0000
    293 O3'        12.1270   26.5200   -4.8400 O.3      10  DA    0.0000
    294 C2'        10.3830   25.2490   -3.6840 C.3      10  DA    0.0000
    295 C1'        11.5650   24.3260   -3.3690 C.3      10  DA    0.0000
    296 N9         11.0620   23.0150   -2.9950 N.ar     10  DA    0.0000
    297 C8          9.7880   22.5900   -2.7380 C.ar     10  DA    0.0000
    298 N7          9.6740   21.3030   -2.4630 N.ar     10  DA    0.0000
    299 C5         10.9820   20.8460   -2.5410 C.ar     10  DA    0.0000
    300 C6         11.5520   19.5630   -2.3510 C.ar     10  DA    0.0000
    301 N6         10.8690   18.4810   -2.0230 N.pl3    10  DA    0.0000
    302 N1         12.9030   19.4730   -2.5280 N.ar     10  DA    0.0000
    303 C2         13.6510   20.5720   -2.8570 C.ar     10  DA    0.0000
    304 N3         13.1900   21.8060   -3.0470 N.ar     10  DA    0.0000
    305 C4         11.8470   21.8750   -2.8760 C.ar     10  DA    0.0000
    306 H5'        11.6099   27.8976   -0.9440 H        10  DA    0.0000
    307 H5''       11.4497   26.2141   -0.3943 H        10  DA    0.0000
    308 H4'        12.8862   27.0300   -2.5314 H        10  DA    0.0000
    309 H3'        10.5594   27.4413   -3.7846 H        10  DA    0.0000
    310 H2'         9.6383   25.2621   -2.8882 H        10  DA    0.0000
    311 H2''        9.9332   25.0059   -4.6467 H        10  DA    0.0000
    312 H1'        12.1527   24.2118   -4.2798 H        10  DA    0.0000
    313 H8          8.9385   23.2566   -2.7583 H        10  DA    0.0000
    314 H2         14.7144   20.4234   -2.9731 H        10  DA    0.0000
    315 H61        11.0749   17.4922   -2.0228 H        10  DA    0.0000
    316 H62         9.9343   18.6883   -1.7014 H        10  DA    0.0000
    317 P          12.9550   27.8190   -5.2730 P.3      11  DC    0.0000
    318 OP1        13.0120   28.8610   -4.2090 O.co2    11  DC    0.0000
    319 OP2        12.2120   28.2760   -6.4950 O.co2    11  DC    0.0000
    320 O5'        14.4170   27.2550   -5.5160 O.3      11  DC    0.0000
    321 C5'        15.3410   27.0430   -4.4060 C.3      11  DC    0.0000
    322 C4'        16.2010   25.8910   -4.9380 C.3      11  DC    0.0000
    323 O4'        15.3810   24.7470   -4.9970 O.3      11  DC    0.0000
    324 C3'        16.7460   26.1280   -6.3440 C.3      11  DC    0.0000
    325 O3'        18.1740   25.9230   -6.4360 O.3      11  DC    0.0000
    326 C2'        15.9360   25.1640   -7.2240 C.3      11  DC    0.0000
    327 C1'        15.6630   24.0440   -6.3040 C.3      11  DC    0.0000
    328 N1         14.4720   23.2110   -6.4490 N.am     11  DC    0.0000
    329 C2         14.6570   21.8590   -6.1660 C.2      11  DC    0.0000
    330 O2         15.7550   21.3810   -5.9100 O.2      11  DC    0.0000
    331 N3         13.5620   21.0540   -6.2190 N.2      11  DC    0.0000
    332 C4         12.3230   21.5280   -6.4950 C.2      11  DC    0.0000
    333 N4         11.3290   20.6420   -6.5140 N.pl3    11  DC    0.0000
    334 C5         12.1450   22.9130   -6.7640 C.2      11  DC    0.0000
    335 C6         13.2300   23.7010   -6.7110 C.2      11  DC    0.0000
    336 H5'        15.9418   27.9318   -4.2133 H        11  DC    0.0000
    337 H5''       14.8023   26.7395   -3.5083 H        11  DC    0.0000
    338 H4'        17.0292   25.7095   -4.2530 H        11  DC    0.0000
    339 H3'        16.5179   27.1515   -6.6416 H        11  DC    0.0000
    340 H2'        15.0104   25.6269   -7.5663 H        11  DC    0.0000
    341 H2''       16.5321   24.8267   -8.0719 H        11  DC    0.0000
    342 H1'        16.5486   23.4160   -6.2069 H        11  DC    0.0000
    343 H5         11.1718   23.3161   -7.0023 H        11  DC    0.0000
    344 H6         13.1133   24.7609   -6.8823 H        11  DC    0.0000
    345 H41        11.5165   19.6685   -6.3211 H        11  DC    0.0000
    346 H42        10.3876   20.9436   -6.7213 H        11  DC    0.0000
    347 P          18.8920   26.4630   -7.7750 P.3      12  DG    0.0000
    348 OP1        20.3250   26.8670   -7.5720 O.co2    12  DG    0.0000
    349 OP2        17.9680   27.5410   -8.2220 O.co2    12  DG    0.0000
    350 O5'        18.8750   25.1880   -8.7930 O.3      12  DG    0.0000
    351 C5'        20.1830   24.5060   -8.9440 C.3      12  DG    0.0000
    352 C4'        19.8260   23.1460   -9.5350 C.3      12  DG    0.0000
    353 O4'        18.5580   22.7740   -9.0030 O.3      12  DG    0.0000
    354 C3'        19.5710   23.2850  -10.9670 C.3      12  DG    0.0000
    355 O3'        20.5900   22.6060  -11.5450 O.3      12  DG    0.0000
    356 C2'        18.2980   22.6150  -11.1700 C.3      12  DG    0.0000
    357 C1'        17.8290   22.0670   -9.9750 C.3      12  DG    0.0000
    358 N9         16.3700   22.2550   -9.9950 N.ar     12  DG    0.0000
    359 C8         15.6610   23.3950  -10.2250 C.ar     12  DG    0.0000
    360 N7         14.3620   23.2150  -10.2250 N.ar     12  DG    0.0000
    361 C5         14.2060   21.8550   -9.9880 C.ar     12  DG    0.0000
    362 C6         13.0440   21.0540   -9.8640 C.2      12  DG    0.0000
    363 O6         11.8550   21.4090   -9.9490 O.2      12  DG    0.0000
    364 N1         13.2970   19.7220   -9.6270 N.am     12  DG    0.0000
    365 C2         14.5730   19.2440   -9.5160 C.2      12  DG    0.0000
    366 N2         14.6600   17.9290   -9.2920 N.pl3    12  DG    0.0000
    367 N3         15.7010   19.9470   -9.6140 N.2      12  DG    0.0000
    368 C4         15.4330   21.2540   -9.8510 C.ar     12  DG    0.0000
    369 H5'        20.8339   25.0623   -9.6185 H        12  DG    0.0000
    370 H5''       20.6607   24.3832   -7.9720 H        12  DG    0.0000
    371 H4'        20.5909   22.3976   -9.3276 H        12  DG    0.0000
    372 H3'        19.5415   24.3285  -11.2805 H        12  DG    0.0000
    373 H2'        17.5703   23.3362  -11.5419 H        12  DG    0.0000
    374 H2''       18.4237   21.8199  -11.9049 H        12  DG    0.0000
    375 H1'        18.0707   21.0052   -9.9278 H        12  DG    0.0000
    376 H8         16.1247   24.3561  -10.3916 H        12  DG    0.0000
    377 H1         12.5212   19.0822   -9.5328 H        12  DG    0.0000
    378 H21        13.8202   17.3731   -9.2158 H        12  DG    0.0000
    379 H22        15.5655   17.4914   -9.1989 H        12  DG    0.0000
    380 HO3'       20.5007   22.6458  -12.5000 H        12  DG    0.0000
    381 O5'         8.1500   12.4960  -11.1240 O.3      13  DC    0.0000
    382 C5'         8.1010   12.5450   -9.6400 C.3      13  DC    0.0000
    383 C4'         9.5060   12.2350   -9.1810 C.3      13  DC    0.0000
    384 O4'        10.4450   13.1950   -9.6080 O.3      13  DC    0.0000
    385 C3'         9.7240   12.0790   -7.6770 C.3      13  DC    0.0000
    386 O3'        10.6930   11.0460   -7.4270 O.3      13  DC    0.0000
    387 C2'        10.2240   13.4480   -7.2630 C.3      13  DC    0.0000
    388 C1'        10.9180   13.9670   -8.5040 C.3      13  DC    0.0000
    389 N1         10.5560   15.3840   -8.6680 N.am     13  DC    0.0000
    390 C2         11.5920   16.2830   -8.8330 C.2      13  DC    0.0000
    391 O2         12.7570   15.9030   -8.8520 O.2      13  DC    0.0000
    392 N3         11.2750   17.6100   -8.9710 N.2      13  DC    0.0000
    393 C4          9.9790   18.0480   -8.9570 C.2      13  DC    0.0000
    394 N4          9.7140   19.3550   -9.1080 N.pl3    13  DC    0.0000
    395 C5          8.9260   17.1040   -8.7870 C.2      13  DC    0.0000
    396 C6          9.2630   15.8090   -8.6420 C.2      13  DC    0.0000
    397 H5'         7.7994   13.5361   -9.3012 H        13  DC    0.0000
    398 H5''        7.4085   11.7927   -9.2625 H        13  DC    0.0000
    399 H4'         9.7884   11.2885   -9.6420 H        13  DC    0.0000
    400 H3'         8.7832   11.8490   -7.1768 H        13  DC    0.0000
    401 H2'         9.3939   14.0963   -6.9822 H        13  DC    0.0000
    402 H2''       10.9330   13.3605   -6.4397 H        13  DC    0.0000
    403 H1'        11.9984   13.8620   -8.4047 H        13  DC    0.0000
    404 H5          7.8923   17.4167   -8.7749 H        13  DC    0.0000
    405 H6          8.4787   15.0802   -8.4998 H        13  DC    0.0000
    406 H41        10.4706   20.0129   -9.2296 H        13  DC    0.0000
    407 H42         8.7580   19.6807   -9.1000 H        13  DC    0.0000
    408 HO5'        8.2635   11.5870  -11.4110 H        13  DC    0.0000
    409 P          10.8610   10.2410   -6.0740 P.3      14  DG    0.0000
    410 OP1        10.2760    8.8690   -5.9630 O.co2    14  DG    0.0000
    411 OP2        10.2070   11.2460   -5.1350 O.co2    14  DG    0.0000
    412 O5'        12.4970   10.1510   -5.9170 O.3      14  DG    0.0000
    413 C5'        13.3390   10.3230   -7.1050 C.3      14  DG    0.0000
    414 C4'        14.5710   11.1110   -6.6660 C.3      14  DG    0.0000
    415 O4'        14.3970   12.4920   -6.8300 O.3      14  DG    0.0000
    416 C3'        14.9700   10.8990   -5.2080 C.3      14  DG    0.0000
    417 O3'        16.3970   10.8250   -4.9840 O.3      14  DG    0.0000
    418 C2'        14.3500   12.1160   -4.4980 C.3      14  DG    0.0000
    419 C1'        14.5410   13.1900   -5.5560 C.3      14  DG    0.0000
    420 N9         13.5150   14.2400   -5.4370 N.ar     14  DG    0.0000
    421 C8         12.1720   14.0850   -5.1880 C.ar     14  DG    0.0000
    422 N7         11.5050   15.2080   -5.1550 N.ar     14  DG    0.0000
    423 C5         12.4720   16.1730   -5.4110 C.ar     14  DG    0.0000
    424 C6         12.3800   17.5860   -5.5230 C.2      14  DG    0.0000
    425 O6         11.3540   18.2720   -5.4110 O.2      14  DG    0.0000
    426 N1         13.5740   18.2110   -5.7860 N.am     14  DG    0.0000
    427 C2         14.7390   17.5330   -5.9300 C.2      14  DG    0.0000
    428 N2         15.8150   18.2720   -6.1860 N.pl3    14  DG    0.0000
    429 N3         14.8800   16.2050   -5.8380 N.2      14  DG    0.0000
    430 C4         13.7080   15.5920   -5.5820 C.ar     14  DG    0.0000
    431 H5'        13.6365    9.3505   -7.4972 H        14  DG    0.0000
    432 H5''       12.7949   10.8799   -7.8678 H        14  DG    0.0000
    433 H4'        15.4081   10.8014   -7.2917 H        14  DG    0.0000
    434 H3'        14.5004    9.9884   -4.8359 H        14  DG    0.0000
    435 H2'        13.2952   11.9558   -4.2749 H        14  DG    0.0000
    436 H2''       14.9050   12.3608   -3.5924 H        14  DG    0.0000
    437 H1'        15.5370   13.6255   -5.4754 H        14  DG    0.0000
    438 H8         11.7096   13.1213   -5.0335 H        14  DG    0.0000
    439 H1         13.5847   19.2169   -5.8758 H        14  DG    0.0000
    440 H21        15.7321   19.2758   -6.2608 H        14  DG    0.0000
    441 H22        16.7149   17.8293   -6.3056 H        14  DG    0.0000
    442 P          16.9020   11.3400   -3.5530 P.3      15  DT    0.0000
    443 OP1        18.1660   10.6740   -3.0800 O.co2    15  DT    0.0000
    444 OP2        15.7430   10.9520   -2.7120 O.co2    15  DT    0.0000
    445 O5'        17.1450   12.9130   -3.7370 O.3      15  DT    0.0000
    446 C5'        18.4860   13.3290   -4.1500 C.3      15  DT    0.0000
    447 C4'        18.7190   14.7430   -3.6640 C.3      15  DT    0.0000
    448 O4'        17.5590   15.5520   -3.7430 O.3      15  DT    0.0000
    449 C3'        19.1700   14.8080   -2.2130 C.3      15  DT    0.0000
    450 O3'        20.1610   15.8250   -1.9500 O.3      15  DT    0.0000
    451 C2'        17.8790   15.0740   -1.4710 C.3      15  DT    0.0000
    452 C1'        17.2420   16.0660   -2.4300 C.3      15  DT    0.0000
    453 N1         15.7900   16.0050   -2.2000 N.am     15  DT    0.0000
    454 C2         15.0710   17.1570   -2.5020 C.2      15  DT    0.0000
    455 O2         15.6460   18.1580   -2.9160 O.2      15  DT    0.0000
    456 N3         13.7180   17.1160   -2.3120 N.am     15  DT    0.0000
    457 C4         13.0890   16.0010   -1.8450 C.2      15  DT    0.0000
    458 O4         11.8230   16.0580   -1.7010 O.2      15  DT    0.0000
    459 C5         13.8520   14.8370   -1.5430 C.2      15  DT    0.0000
    460 C7         13.1680   13.5990   -1.0380 C.3      15  DT    0.0000
    461 C6         15.1730   14.8820   -1.7340 C.2      15  DT    0.0000
    462 H5'        19.2291   12.6624   -3.7123 H        15  DT    0.0000
    463 H5''       18.5609   13.2980   -5.2370 H        15  DT    0.0000
    464 H4'        19.4938   15.1944   -4.2837 H        15  DT    0.0000
    465 H3'        19.5633   13.8363   -1.9143 H        15  DT    0.0000
    466 H2'        17.2788   14.1707   -1.3618 H        15  DT    0.0000
    467 H2''       18.0722   15.5350   -0.5023 H        15  DT    0.0000
    468 H1'        17.6316   17.0738   -2.2861 H        15  DT    0.0000
    469 H3         13.1682   17.9363   -2.5240 H        15  DT    0.0000
    470 H6         15.7671   14.0074   -1.5139 H        15  DT    0.0000
    471 H71        12.0967   13.7827   -0.9567 H        15  DT    0.0000
    472 H72        13.3439   12.7779   -1.7329 H        15  DT    0.0000
    473 H73        13.5672   13.3374   -0.0580 H        15  DT    0.0000
    474 P          21.3730   15.1100   -1.0700 P.3      16  DG    0.0000
    475 OP1        22.5030   14.6120   -1.9110 O.co2    16  DG    0.0000
    476 OP2        20.5700   14.0480   -0.4140 O.co2    16  DG    0.0000
    477 O5'        21.9060   16.3650   -0.2360 O.3      16  DG    0.0000
    478 C5'        22.7730   17.3240   -0.8930 C.3      16  DG    0.0000
    479 C4'        22.1010   18.6730   -0.6700 C.3      16  DG    0.0000
    480 O4'        20.7060   18.5460   -0.8600 O.3      16  DG    0.0000
    481 C3'        22.3220   19.2650    0.7220 C.3      16  DG    0.0000
    482 O3'        22.8920   20.5600    0.6570 O.3      16  DG    0.0000
    483 C2'        20.9590   19.1830    1.3860 C.3      16  DG    0.0000
    484 C1'        20.0120   19.2240    0.2100 C.3      16  DG    0.0000
    485 N9         18.7560   18.5380    0.5250 N.ar     16  DG    0.0000
    486 C8         18.5750   17.2510    0.9460 C.ar     16  DG    0.0000
    487 N7         17.3190   16.9320    1.1430 N.ar     16  DG    0.0000
    488 C5         16.6200   18.0880    0.8080 C.ar     16  DG    0.0000
    489 C6         15.2320   18.3870    0.8010 C.2      16  DG    0.0000
    490 O6         14.3100   17.6310    1.0900 O.2      16  DG    0.0000
    491 N1         14.9270   19.6610    0.4140 N.am     16  DG    0.0000
    492 C2         15.8960   20.5680    0.0590 C.2      16  DG    0.0000
    493 N2         15.4600   21.7770   -0.2960 N.pl3    16  DG    0.0000
    494 N3         17.2150   20.3510    0.0390 N.2      16  DG    0.0000
    495 C4         17.5020   19.0850    0.4270 C.ar     16  DG    0.0000
    496 H5'        23.7671   17.3119   -0.4461 H        16  DG    0.0000
    497 H5''       22.8364   17.1062   -1.9591 H        16  DG    0.0000
    498 H4'        22.4865   19.3760   -1.4084 H        16  DG    0.0000
    499 H3'        23.0079   18.6155    1.2658 H        16  DG    0.0000
    500 H2'        20.8501   18.2540    1.9456 H        16  DG    0.0000
    501 H2''       20.7982   20.0426    2.0367 H        16  DG    0.0000
    502 H1'        19.8118   20.2578   -0.0716 H        16  DG    0.0000
    503 H8         19.3908   16.5607    1.1020 H        16  DG    0.0000
    504 H1         13.9582   19.9453    0.3880 H        16  DG    0.0000
    505 H21        14.4702   21.9780   -0.2927 H        16  DG    0.0000
    506 H22        16.1195   22.4918   -0.5682 H        16  DG    0.0000
    507 P          22.5420   21.9690    1.2810 P.3      17  DA    0.0000
    508 OP1        22.8030   23.0800    0.2560 O.co2    17  DA    0.0000
    509 OP2        23.4390   22.1120    2.4300 O.co2    17  DA    0.0000
    510 O5'        20.9320   21.9690    1.5300 O.3      17  DA    0.0000
    511 C5'        20.1930   22.3490    0.3090 C.3      17  DA    0.0000
    512 C4'        19.4600   23.6280    0.6300 C.3      17  DA    0.0000
    513 O4'        18.1120   23.4070    0.9590 O.3      17  DA    0.0000
    514 C3'        20.0540   24.3710    1.8260 C.3      17  DA    0.0000
    515 O3'        20.0990   25.7640    1.6290 O.3      17  DA    0.0000
    516 C2'        19.2190   23.8480    2.9810 C.3      17  DA    0.0000
    517 C1'        17.9160   23.3870    2.3900 C.3      17  DA    0.0000
    518 N9         17.5290   22.0590    2.8960 N.ar     17  DA    0.0000
    519 C8         18.3350   21.0010    3.2570 C.ar     17  DA    0.0000
    520 N7         17.6830   19.9470    3.6910 N.ar     17  DA    0.0000
    521 C5         16.3520   20.3310    3.5860 C.ar     17  DA    0.0000
    522 C6         15.1530   19.6410    3.8810 C.ar     17  DA    0.0000
    523 N6         15.1110   18.4030    4.3410 N.pl3    17  DA    0.0000
    524 N1         13.9980   20.3310    3.6710 N.ar     17  DA    0.0000
    525 C2         14.0110   21.6100    3.1920 C.ar     17  DA    0.0000
    526 N3         15.1010   22.3120    2.8890 N.ar     17  DA    0.0000
    527 C4         16.2430   21.6180    3.1130 C.ar     17  DA    0.0000
    528 H5'        20.8871   22.5102   -0.5158 H        17  DA    0.0000
    529 H5''       19.4798   21.5673    0.0475 H        17  DA    0.0000
    530 H4'        19.5027   24.2814   -0.2414 H        17  DA    0.0000
    531 H3'        21.0762   24.0190    1.9651 H        17  DA    0.0000
    532 H2'        19.0432   24.6409    3.7079 H        17  DA    0.0000
    533 H2''       19.7278   23.0109    3.4590 H        17  DA    0.0000
    534 H1'        17.1374   24.1042    2.6496 H        17  DA    0.0000
    535 H8         19.4123   21.0358    3.1887 H        17  DA    0.0000
    536 H2         13.0560   22.0929    3.0467 H        17  DA    0.0000
    537 H61        14.3121   17.8090    4.1703 H        17  DA    0.0000
    538 H62        15.8914   18.0444    4.8725 H        17  DA    0.0000
    539 P          19.8260   26.9690    2.6140 P.3      18  DA    0.0000
    540 OP1        19.7450   28.3090    1.8260 O.co2    18  DA    0.0000
    541 OP2        21.0260   27.0020    3.5070 O.co2    18  DA    0.0000
    542 O5'        18.3920   26.7570    3.2310 O.3      18  DA    0.0000
    543 C5'        17.2590   27.4590    2.6790 C.3      18  DA    0.0000
    544 C4'        16.0570   27.0880    3.5200 C.3      18  DA    0.0000
    545 O4'        16.0180   25.7440    3.9070 O.3      18  DA    0.0000
    546 C3'        15.9310   27.9130    4.8000 C.3      18  DA    0.0000
    547 O3'        14.7560   28.7420    4.7220 O.3      18  DA    0.0000
    548 C2'        16.0130   26.8710    5.9170 C.3      18  DA    0.0000
    549 C1'        15.4830   25.6290    5.2670 C.3      18  DA    0.0000
    550 N9         15.9660   24.3590    5.7990 N.ar     18  DA    0.0000
    551 C8         17.2620   23.9420    6.0220 C.ar     18  DA    0.0000
    552 N7         17.3530   22.7090    6.4680 N.ar     18  DA    0.0000
    553 C5         16.0430   22.2760    6.5340 C.ar     18  DA    0.0000
    554 C6         15.4750   21.0460    6.9350 C.ar     18  DA    0.0000
    555 N6         16.1860   20.0040    7.3550 N.pl3    18  DA    0.0000
    556 N1         14.1070   20.9810    6.8560 N.ar     18  DA    0.0000
    557 C2         13.3610   22.0180    6.4290 C.ar     18  DA    0.0000
    558 N3         13.8270   23.2070    6.0350 N.ar     18  DA    0.0000
    559 C4         15.1750   23.2680    6.1140 C.ar     18  DA    0.0000
    560 H5'        17.4281   28.5349    2.7219 H        18  DA    0.0000
    561 H5''       17.0985   27.1498    1.6462 H        18  DA    0.0000
    562 H4'        15.1677   27.2801    2.9198 H        18  DA    0.0000
    563 H3'        16.8029   28.5628    4.8746 H        18  DA    0.0000
    564 H2'        17.0428   26.7309    6.2457 H        18  DA    0.0000
    565 H2''       15.3811   27.1614    6.7563 H        18  DA    0.0000
    566 H1'        14.3932   25.6442    5.2496 H        18  DA    0.0000
    567 H8         18.1224   24.5707    5.8463 H        18  DA    0.0000
    568 H2         12.2907   21.8760    6.4027 H        18  DA    0.0000
    569 H61        15.7375   19.1051    7.2502 H        18  DA    0.0000
    570 H62        17.1097   20.1042    7.7510 H        18  DA    0.0000
    571 P          14.3950   29.7020    5.9630 P.3      19  DT    0.0000
    572 OP1        13.3710   30.7720    5.7400 O.co2    19  DT    0.0000
    573 OP2        15.7600   30.1880    6.3310 O.co2    19  DT    0.0000
    574 O5'        13.6710   28.5580    6.9350 O.3      19  DT    0.0000
    575 C5'        12.8290   27.7000    6.1070 C.3      19  DT    0.0000
    576 C4'        11.7930   27.0590    6.9740 C.3      19  DT    0.0000
    577 O4'        12.1350   25.7720    7.3940 O.3      19  DT    0.0000
    578 C3'        11.4460   27.8560    8.2220 C.3      19  DT    0.0000
    579 O3'        10.0580   27.7820    8.5700 O.3      19  DT    0.0000
    580 C2'        12.4050   27.1940    9.2200 C.3      19  DT    0.0000
    581 C1'        12.2610   25.7310    8.8590 C.3      19  DT    0.0000
    582 N1         13.4850   24.9760    9.1870 N.am     19  DT    0.0000
    583 C2         13.3370   23.6560    9.5750 C.2      19  DT    0.0000
    584 O2         12.2210   23.1460    9.6860 O.2      19  DT    0.0000
    585 N3         14.4690   22.9330    9.8370 N.am     19  DT    0.0000
    586 C4         15.7110   23.4760    9.7260 C.2      19  DT    0.0000
    587 O4         16.7020   22.7410   10.0150 O.2      19  DT    0.0000
    588 C5         15.8420   24.8290    9.3050 C.2      19  DT    0.0000
    589 C7         17.2050   25.4660    9.1740 C.3      19  DT    0.0000
    590 C6         14.7270   25.5190    9.0430 C.2      19  DT    0.0000
    591 H5'        12.3425   28.2982    5.3365 H        19  DT    0.0000
    592 H5''       13.4414   26.9293    5.6389 H        19  DT    0.0000
    593 H4'        10.8824   26.9743    6.3809 H        19  DT    0.0000
    594 H3'        11.7309   28.8984    8.0796 H        19  DT    0.0000
    595 H2'        13.4287   27.5397    9.0764 H        19  DT    0.0000
    596 H2''       12.0783   27.3721   10.2445 H        19  DT    0.0000
    597 H1'        11.3804   25.2883    9.3246 H        19  DT    0.0000
    598 H3         14.3795   21.9679   10.1211 H        19  DT    0.0000
    599 H6         14.8134   26.5414    8.7058 H        19  DT    0.0000
    600 H71        17.4320   26.0290   10.0793 H        19  DT    0.0000
    601 H72        17.2102   26.1393    8.3168 H        19  DT    0.0000
    602 H73        17.9566   24.6897    9.0308 H        19  DT    0.0000
    603 P           9.6370   28.5300    9.9620 P.3      20  DT    0.0000
    604 OP1         8.7250   29.7100    9.6210 O.co2    20  DT    0.0000
    605 OP2        10.9480   29.0400   10.4880 O.co2    20  DT    0.0000
    606 O5'         8.9310   27.4840   10.8620 O.3      20  DT    0.0000
    607 C5'         8.1820   26.3850   10.3430 C.3      20  DT    0.0000
    608 C4'         8.2640   25.2580   11.3220 C.3      20  DT    0.0000
    609 O4'         9.4830   24.5790   11.4590 O.3      20  DT    0.0000
    610 C3'         7.8430   25.5480   12.7790 C.3      20  DT    0.0000
    611 O3'         7.2480   24.3020   13.1540 O.3      20  DT    0.0000
    612 C2'         9.2030   25.7640   13.4560 C.3      20  DT    0.0000
    613 C1'         9.8970   24.5510   12.8710 C.3      20  DT    0.0000
    614 N1         11.3620   24.5710   12.9110 N.am     20  DT    0.0000
    615 C2         11.9740   23.3290   13.1270 C.2      20  DT    0.0000
    616 O2         11.3020   22.3120   13.3110 O.2      20  DT    0.0000
    617 N3         13.3390   23.3010   13.1270 N.am     20  DT    0.0000
    618 C4         14.1000   24.4160   12.9370 C.2      20  DT    0.0000
    619 O4         15.3610   24.2890   12.9700 O.2      20  DT    0.0000
    620 C5         13.4530   25.6620   12.7140 C.2      20  DT    0.0000
    621 C7         14.2860   26.9080   12.4970 C.3      20  DT    0.0000
    622 C6         12.1170   25.6820   12.7010 C.2      20  DT    0.0000
    623 H5'         7.1415   26.6797   10.2066 H        20  DT    0.0000
    624 H5''        8.6032   26.0725    9.3875 H        20  DT    0.0000
    625 H4'         7.5571   24.5109   10.9611 H        20  DT    0.0000
    626 H3'         7.1687   26.3989   12.8759 H        20  DT    0.0000
    627 H2'         9.1383   25.7229   14.5433 H        20  DT    0.0000
    628 H2''        9.6710   26.6895   13.1207 H        20  DT    0.0000
    629 H1'         9.5252   23.6445   13.3487 H        20  DT    0.0000
    630 H3         13.8046   22.4169   13.2740 H        20  DT    0.0000
    631 H6         11.6157   26.6205   12.5158 H        20  DT    0.0000
    632 H71        15.3442   26.6521   12.5502 H        20  DT    0.0000
    633 H72        14.0505   27.6411   13.2685 H        20  DT    0.0000
    634 H73        14.0627   27.3281   11.5163 H        20  DT    0.0000
    635 P           6.3860   24.0240   14.4150 P.3      21  DC    0.0000
    636 OP1         5.1150   23.2840   13.9940 O.co2    21  DC    0.0000
    637 OP2         6.0260   25.3680   14.9660 O.co2    21  DC    0.0000
    638 O5'         7.4090   23.1170   15.3010 O.3      21  DC    0.0000
    639 C5'         7.5900   21.7440   14.8220 C.3      21  DC    0.0000
    640 C4'         7.7930   20.8950   16.0500 C.3      21  DC    0.0000
    641 O4'         9.1540   20.6250   16.2930 O.3      21  DC    0.0000
    642 C3'         7.2460   21.4870   17.3500 C.3      21  DC    0.0000
    643 O3'         6.7530   20.5230   18.2830 O.3      21  DC    0.0000
    644 C2'         8.4700   22.2710   17.8430 C.3      21  DC    0.0000
    645 C1'         9.6300   21.3770   17.4090 C.3      21  DC    0.0000
    646 N1         10.7770   22.2510   17.0680 N.am     21  DC    0.0000
    647 C2         12.0460   21.6750   17.1070 C.2      21  DC    0.0000
    648 O2         12.1990   20.4820   17.4030 O.2      21  DC    0.0000
    649 N3         13.1090   22.4800   16.7980 N.2      21  DC    0.0000
    650 C4         12.9530   23.7910   16.4770 C.2      21  DC    0.0000
    651 N4         14.0210   24.5350   16.1810 N.pl3    21  DC    0.0000
    652 C5         11.6470   24.3550   16.4500 C.2      21  DC    0.0000
    653 C6         10.6030   23.5620   16.7460 C.2      21  DC    0.0000
    654 H5'         6.7057   21.4144   14.2766 H        21  DC    0.0000
    655 H5''        8.4682   21.6859   14.1789 H        21  DC    0.0000
    656 H4'         7.2905   19.9425   15.8818 H        21  DC    0.0000
    657 H3'         6.4477   22.1896   17.1112 H        21  DC    0.0000
    658 H2'         8.4500   22.3926   18.9260 H        21  DC    0.0000
    659 H2''        8.5282   23.2411   17.3494 H        21  DC    0.0000
    660 H1'         9.9043   20.7037   18.2211 H        21  DC    0.0000
    661 H5         11.4983   25.3946   16.1979 H        21  DC    0.0000
    662 H6          9.6047   23.9738   16.7280 H        21  DC    0.0000
    663 H41        14.9435   24.1242   16.1995 H        21  DC    0.0000
    664 H42        13.9066   25.5088   15.9386 H        21  DC    0.0000
    665 P           6.8840   20.6130   19.9240 P.3      22  DA    0.0000
    666 OP1         5.7910   19.7630   20.5350 O.co2    22  DA    0.0000
    667 OP2         6.7870   22.0670   20.2260 O.co2    22  DA    0.0000
    668 O5'         8.2810   19.8820   20.1740 O.3      22  DA    0.0000
    669 C5'         8.3380   18.4150   19.9830 C.3      22  DA    0.0000
    670 C4'         9.4830   18.0270   20.9030 C.3      22  DA    0.0000
    671 O4'        10.6950   18.6480   20.4560 O.3      22  DA    0.0000
    672 C3'         9.3020   18.5250   22.3480 C.3      22  DA    0.0000
    673 O3'        10.1650   17.8470   23.2470 O.3      22  DA    0.0000
    674 C2'         9.8720   19.9510   22.2360 C.3      22  DA    0.0000
    675 C1'        11.1660   19.5180   21.4940 C.3      22  DA    0.0000
    676 N9         11.7830   20.7720   21.0740 N.ar     22  DA    0.0000
    677 C8         11.1310   21.9530   20.7980 C.ar     22  DA    0.0000
    678 N7         11.9390   22.9250   20.4560 N.ar     22  DA    0.0000
    679 C5         13.2130   22.3330   20.5220 C.ar     22  DA    0.0000
    680 C6         14.5040   22.8680   20.2590 C.ar     22  DA    0.0000
    681 N6         14.7220   24.1300   19.8780 N.pl3    22  DA    0.0000
    682 N1         15.5250   21.9810   20.4230 N.ar     22  DA    0.0000
    683 C2         15.3040   20.6990   20.8040 C.ar     22  DA    0.0000
    684 N3         14.1220   20.1310   21.0600 N.ar     22  DA    0.0000
    685 C4         13.1230   21.0170   20.9030 C.ar     22  DA    0.0000
    686 H5'         7.4059   17.9387   20.2869 H        22  DA    0.0000
    687 H5''        8.5759   18.1704   18.9478 H        22  DA    0.0000
    688 H4'         9.6038   16.9437   20.9010 H        22  DA    0.0000
    689 H3'         8.2612   18.5112   22.6714 H        22  DA    0.0000
    690 H2'         9.2434   20.6152   21.6429 H        22  DA    0.0000
    691 H2''       10.0925   20.3744   23.2159 H        22  DA    0.0000
    692 H1'        11.8281   18.9775   22.1704 H        22  DA    0.0000
    693 H8         10.0586   22.0664   20.8577 H        22  DA    0.0000
    694 H2         16.1754   20.0703   20.9120 H        22  DA    0.0000
    695 H61        13.9445   24.7643   19.7632 H        22  DA    0.0000
    696 H62        15.6643   24.4496   19.7048 H        22  DA    0.0000
    697 P           9.5950   17.1730   24.5670 P.3      23  DC    0.0000
    698 OP1         9.1040   15.8290   24.0550 O.co2    23  DC    0.0000
    699 OP2         8.5370   17.9700   25.1980 O.co2    23  DC    0.0000
    700 O5'        10.9450   17.1570   25.5060 O.3      23  DC    0.0000
    701 C5'        12.1450   16.5520   24.8890 C.3      23  DC    0.0000
    702 C4'        13.3560   17.3240   25.3420 C.3      23  DC    0.0000
    703 O4'        13.7180   18.3870   24.4690 O.3      23  DC    0.0000
    704 C3'        13.1780   17.9540   26.7340 C.3      23  DC    0.0000
    705 O3'        14.3770   18.0190   27.4960 O.3      23  DC    0.0000
    706 C2'        12.7690   19.4000   26.3010 C.3      23  DC    0.0000
    707 C1'        13.9830   19.5300   25.3090 C.3      23  DC    0.0000
    708 N1         13.9710   20.8780   24.8040 N.am     23  DC    0.0000
    709 C2         15.1550   21.4140   24.3240 C.2      23  DC    0.0000
    710 O2         16.2750   20.8990   24.2320 O.2      23  DC    0.0000
    711 N3         15.1380   22.7040   23.8710 N.2      23  DC    0.0000
    712 C4         14.0010   23.4640   23.8910 C.2      23  DC    0.0000
    713 N4         14.0300   24.7220   23.4240 N.pl3    23  DC    0.0000
    714 C5         12.7940   22.9010   24.3900 C.2      23  DC    0.0000
    715 C6         12.8360   21.6380   24.8300 C.2      23  DC    0.0000
    716 H5'        12.2342   15.5116   25.2017 H        23  DC    0.0000
    717 H5''       12.0635   16.6024   23.8032 H        23  DC    0.0000
    718 H4'        14.1958   16.6310   25.3926 H        23  DC    0.0000
    719 H3'        12.3790   17.4655   27.2917 H        23  DC    0.0000
    720 H2'        11.7984   19.4467   25.8072 H        23  DC    0.0000
    721 H2''       12.8403   20.1079   27.1268 H        23  DC    0.0000
    722 H1'        14.9105   19.3626   25.8566 H        23  DC    0.0000
    723 H5         11.8774   23.4718   24.4129 H        23  DC    0.0000
    724 H6         11.9311   21.1993   25.2238 H        23  DC    0.0000
    725 H41        14.8918   25.1079   23.0656 H        23  DC    0.0000
    726 H42        13.1900   25.2828   23.4310 H        23  DC    0.0000
    727 P          14.3920   17.5120   29.0390 P.3      24  DG    0.0000
    728 OP1        14.3050   15.9970   28.9870 O.co2    24  DG    0.0000
    729 OP2        13.2280   18.1700   29.6170 O.co2    24  DG    0.0000
    730 O5'        15.8540   17.9490   29.5380 O.3      24  DG    0.0000
    731 C5'        16.9350   17.2140   28.8750 C.3      24  DG    0.0000
    732 C4'        18.0790   18.1990   28.7500 C.3      24  DG    0.0000
    733 O4'        17.8890   19.1100   27.6930 O.3      24  DG    0.0000
    734 C3'        18.3250   18.9990   30.0240 C.3      24  DG    0.0000
    735 O3'        19.3260   18.2760   30.7930 O.3      24  DG    0.0000
    736 C2'        18.8430   20.3390   29.5450 C.3      24  DG    0.0000
    737 C1'        18.4140   20.4090   28.1200 C.3      24  DG    0.0000
    738 N9         17.2890   21.3560   27.9230 N.ar     24  DG    0.0000
    739 C8         15.9480   21.1680   28.1790 C.ar     24  DG    0.0000
    740 N7         15.1930   22.1900   27.8770 N.ar     24  DG    0.0000
    741 C5         16.1090   23.1090   27.3520 C.ar     24  DG    0.0000
    742 C6         15.9310   24.4120   26.8200 C.2      24  DG    0.0000
    743 O6         14.8680   25.0210   26.7080 O.2      24  DG    0.0000
    744 N1         17.0960   25.0170   26.4120 N.am     24  DG    0.0000
    745 C2         18.3150   24.4040   26.4910 C.2      24  DG    0.0000
    746 N2         19.3480   25.1390   26.0320 N.pl3    24  DG    0.0000
    747 N3         18.5380   23.1860   26.9580 N.2      24  DG    0.0000
    748 C4         17.3960   22.6060   27.3710 C.ar     24  DG    0.0000
    749 H5'        17.2358   16.3557   29.4758 H        24  DG    0.0000
    750 H5''       16.6136   16.8855   27.8866 H        24  DG    0.0000
    751 H4'        18.9838   17.6296   28.5372 H        24  DG    0.0000
    752 H3'        17.4041   19.1175   30.5950 H        24  DG    0.0000
    753 H2'        18.4021   21.1522   30.1216 H        24  DG    0.0000
    754 H2''       19.9303   20.3715   29.6150 H        24  DG    0.0000
    755 H1'        19.2567   20.6954   27.4908 H        24  DG    0.0000
    756 H8         15.5544   20.2522   28.5946 H        24  DG    0.0000
    757 H1         17.0492   25.9541   26.0381 H        24  DG    0.0000
    758 H21        19.1855   26.0680   25.6705 H        24  DG    0.0000
    759 H22        20.2843   24.7606   26.0497 H        24  DG    0.0000
    760 HO3'       19.0338   17.3718   30.9294 H        24  DG    0.0000
    761 O          20.7560   18.8560   13.0420 O.t3p    25 HOH    0.0000
    762 H1         19.8305   18.8189   13.2834 H.t3p    25 HOH    0.0000
    763 H2         20.8432   19.2360   12.1678 H.t3p    25 HOH    0.0000
    764 O          14.9080   23.4560   -2.8760 O.t3p    26 HOH    0.0000
    765 H1         14.1856   23.1135   -3.4024 H.t3p    26 HOH    0.0000
    766 H2         15.5885   23.8016   -3.4537 H.t3p    26 HOH    0.0000
    767 O          19.2540   30.7110   17.8490 O.t3p    27 HOH    0.0000
    768 H1         19.8121   30.7013   18.6266 H.t3p    27 HOH    0.0000
    769 H2         19.6988   31.1788   17.1422 H.t3p    27 HOH    0.0000
    770 O          13.2470   16.0950   18.0590 O.t3p    28 HOH    0.0000
    771 H1         14.1135   16.2725   18.4249 H.t3p    28 HOH    0.0000
    772 H2         13.0751   15.1538   18.0868 H.t3p    28 HOH    0.0000
    773 O          25.5800   24.2570   15.8590 O.t3p    29 HOH    0.0000
    774 H1         25.6783   23.9248   14.9667 H.t3p    29 HOH    0.0000
    775 H2         25.9702   25.1290   15.9194 H.t3p    29 HOH    0.0000
    776 O           2.3890   16.4910    5.9370 O.t3p    30 HOH    0.0000
    777 H1          3.1857   16.4155    6.4622 H.t3p    30 HOH    0.0000
    778 H2          2.2119   15.6563    5.5033 H.t3p    30 HOH    0.0000
    779 O          19.2340   14.5470   12.6740 O.t3p    31 HOH    0.0000
    780 H1         19.6932   14.8070   13.4726 H.t3p    31 HOH    0.0000
    781 H2         19.8659   14.4375   11.9634 H.t3p    31 HOH    0.0000
    782 O          17.1060   27.7740   15.6430 O.t3p    32 HOH    0.0000
    783 H1         17.5385   26.9202   15.6566 H.t3p    32 HOH    0.0000
    784 H2         17.7635   28.4657   15.7171 H.t3p    32 HOH    0.0000
    785 O           9.5130   12.8270    9.3320 O.t3p    33 HOH    0.0000
    786 H1          9.0299   12.6049   10.1279 H.t3p    33 HOH    0.0000
    787 H2          8.9004   12.9233    8.6028 H.t3p    33 HOH    0.0000
    788 O           5.3230   13.7660    5.3260 O.t3p    34 HOH    0.0000
    789 H1          4.3730   13.7769    5.2090 H.t3p    34 HOH    0.0000
    790 H2          5.7032   13.0709    4.7888 H.t3p    34 HOH    0.0000
    791 O          14.3150   25.3760   -0.9780 O.t3p    35 HOH    0.0000
    792 H1         14.0418   25.1607   -1.8698 H.t3p    35 HOH    0.0000
    793 H2         13.7134   24.9714   -0.3530 H.t3p    35 HOH    0.0000
    794 O          13.4460   24.8370    1.6150 O.t3p    36 HOH    0.0000
    795 H1         13.2664   23.9664    1.2599 H.t3p    36 HOH    0.0000
    796 H2         12.6332   25.2218    1.9429 H.t3p    36 HOH    0.0000
    797 O          25.4140   13.5500   13.9350 O.t3p    37 HOH    0.0000
    798 H1         26.2763   13.6227   13.5258 H.t3p    37 HOH    0.0000
    799 H2         24.7367   13.7516   13.2894 H.t3p    37 HOH    0.0000
    800 O           7.3250   24.9060   -2.5870 O.t3p    38 HOH    0.0000
    801 H1          7.3563   25.5963   -1.9246 H.t3p    38 HOH    0.0000
    802 H2          6.5464   25.0210   -3.1318 H.t3p    38 HOH    0.0000
    803 O          21.8240   26.0990   -5.3320 O.t3p    39 HOH    0.0000
    804 H1         21.3120   26.3613   -6.0971 H.t3p    39 HOH    0.0000
    805 H2         21.8730   25.1438   -5.2933 H.t3p    39 HOH    0.0000
    806 O          15.6580   16.5890   19.0770 O.t3p    40 HOH    0.0000
    807 H1         16.0017   16.2548   18.2485 H.t3p    40 HOH    0.0000
    808 H2         15.9856   16.0515   19.7981 H.t3p    40 HOH    0.0000
    809 O          22.3940   29.4080   -5.1810 O.t3p    41 HOH    0.0000
    810 H1         22.5563   30.3504   -5.1380 H.t3p    41 HOH    0.0000
    811 H2         22.7163   29.0667   -6.0152 H.t3p    41 HOH    0.0000
    812 O          10.0330   19.2610   11.9320 O.t3p    42 HOH    0.0000
    813 H1         10.7343   18.6339   11.7555 H.t3p    42 HOH    0.0000
    814 H2          9.1911   18.8754   11.6898 H.t3p    42 HOH    0.0000
    815 O          19.0160   21.7610   13.2460 O.t3p    43 HOH    0.0000
    816 H1         19.3125   21.7061   14.1545 H.t3p    43 HOH    0.0000
    817 H2         19.4291   21.0665   12.7330 H.t3p    43 HOH    0.0000
    818 O          28.4620   23.2800   18.0990 O.t3p    44 HOH    0.0000
    819 H1         27.8269   23.9780   18.2592 H.t3p    44 HOH    0.0000
    820 H2         28.7191   22.8855   18.9324 H.t3p    44 HOH    0.0000
    821 O          21.3030   22.8720   15.5770 O.t3p    45 HOH    0.0000
    822 H1         20.5026   22.3728   15.7396 H.t3p    45 HOH    0.0000
    823 H2         21.7906   22.4682   14.8590 H.t3p    45 HOH    0.0000
    824 O          17.2470   28.9950   19.9370 O.t3p    46 HOH    0.0000
    825 H1         17.2650   28.4499   20.7236 H.t3p    46 HOH    0.0000
    826 H2         16.3629   29.3377   19.8059 H.t3p    46 HOH    0.0000
    827 O          26.5940   28.5300   13.9680 O.t3p    47 HOH    0.0000
    828 H1         26.5364   28.4458   13.0163 H.t3p    47 HOH    0.0000
    829 H2         26.7922   29.4380   14.1970 H.t3p    47 HOH    0.0000
    830 O          28.8340   17.7370   18.7490 O.t3p    48 HOH    0.0000
    831 H1         27.8791   17.7824   18.7983 H.t3p    48 HOH    0.0000
    832 H2         29.1599   17.1314   19.4148 H.t3p    48 HOH    0.0000
    833 O          14.5610   29.3750   20.5020 O.t3p    49 HOH    0.0000
    834 H1         14.2424   28.6495   21.0390 H.t3p    49 HOH    0.0000
    835 H2         14.4484   30.1978   20.9780 H.t3p    49 HOH    0.0000
    836 O           8.9700   13.2800    6.9940 O.t3p    50 HOH    0.0000
    837 H1          9.7569   13.1794    6.4584 H.t3p    50 HOH    0.0000
    838 H2          8.3006   12.6640    6.6963 H.t3p    50 HOH    0.0000
    839 O           9.5820   16.4710    1.2280 O.t3p    51 HOH    0.0000
    840 H1          8.9411   16.6678    0.5448 H.t3p    51 HOH    0.0000
    841 H2          9.1947   16.6396    2.0870 H.t3p    51 HOH    0.0000
    842 O           1.5930   25.6090    3.0010 O.t3p    52 HOH    0.0000
    843 H1          0.7679   26.0846    2.9043 H.t3p    52 HOH    0.0000
    844 H2          1.6284   24.8974    2.3618 H.t3p    52 HOH    0.0000
    845 O          11.2850   10.7720   18.3550 O.t3p    53 HOH    0.0000
    846 H1         10.7050   10.7570   19.1164 H.t3p    53 HOH    0.0000
    847 H2         11.9467   10.0861   18.4439 H.t3p    53 HOH    0.0000
    848 O          26.8540   28.9100   18.2630 O.t3p    54 HOH    0.0000
    849 H1         27.5904   28.2992   18.2336 H.t3p    54 HOH    0.0000
    850 H2         27.1635   29.7934   18.0631 H.t3p    54 HOH    0.0000
    851 O          30.3330   26.3110   21.0280 O.t3p    55 HOH    0.0000
    852 H1         29.9422   26.5506   20.1877 H.t3p    55 HOH    0.0000
    853 H2         31.1558   26.7860   21.1448 H.t3p    55 HOH    0.0000
    854 O          15.2920   28.6150   -8.9380 O.t3p    56 HOH    0.0000
    855 H1         16.1541   28.2690   -8.7073 H.t3p    56 HOH    0.0000
    856 H2         15.3341   29.0291   -9.8000 H.t3p    56 HOH    0.0000
    857 O          17.5840   12.3780    7.9460 O.t3p    57 HOH    0.0000
    858 H1         17.2192   11.6366    8.4292 H.t3p    57 HOH    0.0000
    859 H2         18.4840   12.1792    7.6876 H.t3p    57 HOH    0.0000
    860 O          16.3050    9.7790    9.6400 O.t3p    58 HOH    0.0000
    861 H1         16.3058    9.0018    9.0812 H.t3p    58 HOH    0.0000
    862 H2         15.4075    9.9810    9.9043 H.t3p    58 HOH    0.0000
    863 O          18.6590   17.2140    9.7450 O.t3p    59 HOH    0.0000
    864 H1         19.4228   17.6199    9.3350 H.t3p    59 HOH    0.0000
    865 H2         18.2715   16.5806    9.1409 H.t3p    59 HOH    0.0000
    866 O          29.0070   27.1240   18.1770 O.t3p    60 HOH    0.0000
    867 H1         29.7160   27.5040   17.6582 H.t3p    60 HOH    0.0000
    868 H2         28.7238   26.3020   17.7766 H.t3p    60 HOH    0.0000
    869 O          18.5650   24.8940   15.6890 O.t3p    61 HOH    0.0000
    870 H1         17.8407   24.2815   15.8173 H.t3p    61 HOH    0.0000
    871 H2         19.0084   24.6955   14.8642 H.t3p    61 HOH    0.0000
    872 O           2.6590   13.9340   16.5490 O.t3p    62 HOH    0.0000
    873 H1          1.9721   14.0403   17.2071 H.t3p    62 HOH    0.0000
    874 H2          3.3924   13.4502   16.9289 H.t3p    62 HOH    0.0000
    875 O           2.4410   13.7990    4.9710 O.t3p    63 HOH    0.0000
    876 H1          2.1279   13.6835    4.0739 H.t3p    63 HOH    0.0000
    877 H2          1.9395   13.2344    5.5591 H.t3p    63 HOH    0.0000
    878 O          23.7760   22.4590    7.5850 O.t3p    64 HOH    0.0000
    879 H1         22.9997   22.7681    8.0519 H.t3p    64 HOH    0.0000
    880 H2         24.5495   22.5803    8.1357 H.t3p    64 HOH    0.0000
    881 O          11.2450   24.4160    5.7130 O.t3p    65 HOH    0.0000
    882 H1         11.1386   24.7168    6.6155 H.t3p    65 HOH    0.0000
    883 H2         10.4088   24.4853    5.2524 H.t3p    65 HOH    0.0000
    884 O           6.4250   28.0230   10.5200 O.t3p    66 HOH    0.0000
    885 H1          5.7268   28.6740   10.5903 H.t3p    66 HOH    0.0000
    886 H2          6.8024   27.8655   11.3854 H.t3p    66 HOH    0.0000
    887 O          24.2970   27.2390    3.8610 O.t3p    67 HOH    0.0000
    888 H1         23.3478   27.1702    3.7583 H.t3p    67 HOH    0.0000
    889 H2         24.5221   27.1914    4.7901 H.t3p    67 HOH    0.0000
    890 O          19.7350   22.4720    6.2390 O.t3p    68 HOH    0.0000
    891 H1         18.7868   22.5663    6.3302 H.t3p    68 HOH    0.0000
    892 H2         19.9985   21.5985    6.5285 H.t3p    68 HOH    0.0000
    893 O          13.4700   27.1000   15.9120 O.t3p    69 HOH    0.0000
    894 H1         12.5952   27.2769   16.2579 H.t3p    69 HOH    0.0000
    895 H2         14.1145   27.6170   16.3954 H.t3p    69 HOH    0.0000
    896 O           2.4310   21.1600   14.3360 O.t3p    70 HOH    0.0000
    897 H1          1.6841   20.5689   14.4312 H.t3p    70 HOH    0.0000
    898 H2          3.2437   20.6686   14.4556 H.t3p    70 HOH    0.0000
    899 O           9.3840   15.4860   -3.0930 O.t3p    71 HOH    0.0000
    900 H1         10.1986   15.6770   -2.6281 H.t3p    71 HOH    0.0000
    901 H2          8.6463   15.5563   -2.4871 H.t3p    71 HOH    0.0000
    902 O          16.4440   14.7670    2.1210 O.t3p    72 HOH    0.0000
    903 H1         16.7748   15.5856    1.7512 H.t3p    72 HOH    0.0000
    904 H2         15.4878   14.7947    2.1539 H.t3p    72 HOH    0.0000
    905 O          14.2930   15.5560   31.3770 O.t3p    73 HOH    0.0000
    906 H1         14.2977   15.7297   30.4357 H.t3p    73 HOH    0.0000
    907 H2         14.2398   14.6122   31.5275 H.t3p    73 HOH    0.0000
    908 O           5.3950   27.8430   13.9290 O.t3p    74 HOH    0.0000
    909 H1          5.6141   26.9836   14.2891 H.t3p    74 HOH    0.0000
    910 H2          4.7037   28.2435   14.4562 H.t3p    74 HOH    0.0000
    911 O          27.7020   15.1510   -3.9530 O.t3p    75 HOH    0.0000
    912 H1         28.5295   15.6257   -3.8743 H.t3p    75 HOH    0.0000
    913 H2         27.6088   14.8170   -4.8452 H.t3p    75 HOH    0.0000
    914 O           9.8970   22.4100    9.5090 O.t3p    76 HOH    0.0000
    915 H1         10.4813   23.1666    9.4601 H.t3p    76 HOH    0.0000
    916 H2          9.3430   22.4838   10.2861 H.t3p    76 HOH    0.0000
    917 O          10.7940    8.5700   -9.6270 O.t3p    77 HOH    0.0000
    918 H1         10.7648    9.2852   -8.9915 H.t3p    77 HOH    0.0000
    919 H2         10.0791    7.9581   -9.4518 H.t3p    77 HOH    0.0000
    920 O          20.2650   28.9420    5.3720 O.t3p    78 HOH    0.0000
    921 H1         20.5255   28.2780    4.7337 H.t3p    78 HOH    0.0000
    922 H2         20.9647   29.0594    6.0145 H.t3p    78 HOH    0.0000
    923 O          12.8860   27.9370    2.4820 O.t3p    79 HOH    0.0000
    924 H1         13.4773   28.1916    3.1903 H.t3p    79 HOH    0.0000
    925 H2         12.0433   28.3764    2.5959 H.t3p    79 HOH    0.0000
    926 O          19.7870   15.8330   31.8300 O.t3p    80 HOH    0.0000
    927 H1         20.6310   15.8316   32.2816 H.t3p    80 HOH    0.0000
    928 H2         19.0925   15.6138   32.4511 H.t3p    80 HOH    0.0000
    929 O          10.8730   28.9590   16.6740 O.t3p    81 HOH    0.0000
    930 H1          9.9877   28.8766   16.3195 H.t3p    81 HOH    0.0000
    931 H2         11.2184   29.8283   16.4708 H.t3p    81 HOH    0.0000
    932 O           8.2940   25.3600    6.3900 O.t3p    82 HOH    0.0000
    933 H1          8.2768   25.7542    7.2621 H.t3p    82 HOH    0.0000
    934 H2          7.7050   24.6057    6.3691 H.t3p    82 HOH    0.0000
    935 O           5.0450   24.0240   10.6980 O.t3p    83 HOH    0.0000
    936 H1          5.6819   24.1044   11.4080 H.t3p    83 HOH    0.0000
    937 H2          4.1826   23.8263   11.0632 H.t3p    83 HOH    0.0000
    938 O          21.0460   23.5460    9.2270 O.t3p    84 HOH    0.0000
    939 H1         21.3012   23.8737   10.0894 H.t3p    84 HOH    0.0000
    940 H2         20.4275   22.8229    9.3309 H.t3p    84 HOH    0.0000
    941 O           2.3170   27.2960   10.0930 O.t3p    85 HOH    0.0000
    942 H1          1.9638   26.7012   10.7546 H.t3p    85 HOH    0.0000
    943 H2          2.5136   28.1414   10.4966 H.t3p    85 HOH    0.0000
    944 O           8.1010   28.7010   15.5640 O.t3p    86 HOH    0.0000
    945 H1          7.5305   29.3506   15.9749 H.t3p    86 HOH    0.0000
    946 H2          8.1214   28.8472   14.6183 H.t3p    86 HOH    0.0000
    947 O           7.0280   30.5070    6.8490 O.t3p    87 HOH    0.0000
    948 H1          7.5824   30.0823    7.5036 H.t3p    87 HOH    0.0000
    949 H2          7.2869   30.2169    5.9743 H.t3p    87 HOH    0.0000
    950 O           6.6140   14.9720   -6.5930 O.t3p    88 HOH    0.0000
    951 H1          5.9453   14.9332   -5.9092 H.t3p    88 HOH    0.0000
    952 H2          6.5043   14.2316   -7.1896 H.t3p    88 HOH    0.0000
    953 O           3.8630   19.2890   -5.8640 O.t3p    89 HOH    0.0000
    954 H1          3.3537   20.0882   -5.7290 H.t3p    89 HOH    0.0000
    955 H2          3.4682   18.7741   -6.5678 H.t3p    89 HOH    0.0000
    956 O          22.5030   12.7860   -4.0320 O.t3p    90 HOH    0.0000
    957 H1         22.5030   13.4105   -3.3066 H.t3p    90 HOH    0.0000
    958 H2         23.3951   12.6800   -4.3624 H.t3p    90 HOH    0.0000
    959 O          21.9920   19.3960    4.8600 O.t3p    91 HOH    0.0000
    960 H1         22.2643   19.4522    5.7759 H.t3p    91 HOH    0.0000
    961 H2         21.3220   18.7187    4.7676 H.t3p    91 HOH    0.0000
    962 O          10.1700   12.2880   -2.7910 O.t3p    92 HOH    0.0000
    963 H1         10.5580   11.6665   -3.4069 H.t3p    92 HOH    0.0000
    964 H2         10.0258   11.8558   -1.9492 H.t3p    92 HOH    0.0000
    965 O          10.4320    7.6760   -3.0800 O.t3p    93 HOH    0.0000
    966 H1         10.4093    8.0875   -3.9439 H.t3p    93 HOH    0.0000
    967 H2         10.4404    8.3532   -2.4036 H.t3p    93 HOH    0.0000
    968 O           7.3890   25.9600   17.5010 O.t3p    94 HOH    0.0000
    969 H1          6.9450   25.7672   16.6752 H.t3p    94 HOH    0.0000
    970 H2          7.1262   26.8269   17.8102 H.t3p    94 HOH    0.0000
    971 O           7.2680   21.1770   10.0540 O.t3p    95 HOH    0.0000
    972 H1          7.8395   20.5330    9.6358 H.t3p    95 HOH    0.0000
    973 H2          6.4746   20.7431   10.3678 H.t3p    95 HOH    0.0000
    974 O           9.2850   18.6970   14.6250 O.t3p    96 HOH    0.0000
    975 H1          9.3001   18.9369   15.5515 H.t3p    96 HOH    0.0000
    976 H2          9.7642   19.3520   14.1175 H.t3p    96 HOH    0.0000
    977 O          22.3320   16.3850    2.8960 O.t3p    97 HOH    0.0000
    978 H1         22.2030   16.3789    1.9476 H.t3p    97 HOH    0.0000
    979 H2         22.8954   15.6528    3.1465 H.t3p    97 HOH    0.0000
    980 O           6.2200   15.5190   23.0370 O.t3p    98 HOH    0.0000
    981 H1          7.0812   15.7584   23.3795 H.t3p    98 HOH    0.0000
    982 H2          5.6456   15.2712   23.7615 H.t3p    98 HOH    0.0000
    983 O          10.4470    9.8980   -1.4320 O.t3p    99 HOH    0.0000
    984 H1         11.3331   10.0818   -1.1201 H.t3p    99 HOH    0.0000
    985 H2          9.9273    9.5295   -0.7176 H.t3p    99 HOH    0.0000
    986 O          16.9400   11.6830    0.1250 O.t3p   100 HOH    0.0000
    987 H1         16.5780   11.4619   -0.7331 H.t3p   100 HOH    0.0000
    988 H2         16.2951   11.4859    0.8043 H.t3p   100 HOH    0.0000
    989 O           9.2080   14.0970   26.8980 O.t3p   101 HOH    0.0000
    990 H1          9.1781   14.5948   26.0809 H.t3p   101 HOH    0.0000
    991 H2          8.9179   13.1993   26.7360 H.t3p   101 HOH    0.0000
    992 O          24.6610   14.9350    0.5710 O.t3p   102 HOH    0.0000
    993 H1         24.0360   14.8414   -0.1479 H.t3p   102 HOH    0.0000
    994 H2         25.0460   14.0822    0.7727 H.t3p   102 HOH    0.0000
    995 O           3.7120   29.6450    7.4800 O.t3p   103 HOH    0.0000
    996 H1          4.2085   28.8584    7.2540 H.t3p   103 HOH    0.0000
    997 H2          4.0910   30.0481    8.2610 H.t3p   103 HOH    0.0000
    998 O           7.4440   29.9060    3.7100 O.t3p   104 HOH    0.0000
    999 H1          6.6555   30.1579    3.2292 H.t3p   104 HOH    0.0000
   1000 H2          8.1904   30.4094    3.3849 H.t3p   104 HOH    0.0000
   1001 O           8.5040    9.7510  -12.3720 O.t3p   105 HOH    0.0000
   1002 H1          7.6813    9.9742  -12.8074 H.t3p   105 HOH    0.0000
   1003 H2          9.1820    9.5988  -13.0303 H.t3p   105 HOH    0.0000
   1004 O           3.5810   14.5390   24.6530 O.t3p   106 HOH    0.0000
   1005 H1          2.8256   14.5456   24.0652 H.t3p   106 HOH    0.0000
   1006 H2          3.7205   13.6514   24.9830 H.t3p   106 HOH    0.0000
   1007 O           5.8980   10.4580  -13.7510 O.t3p   107 HOH    0.0000
   1008 H1          5.6540    9.7549  -14.3529 H.t3p   107 HOH    0.0000
   1009 H2          5.2099   10.5696  -13.0950 H.t3p   107 HOH    0.0000
   1010 O          12.9100   10.4090   -0.5650 O.t3p   108 HOH    0.0000
   1011 H1         13.3165    9.5975   -0.2609 H.t3p   108 HOH    0.0000
   1012 H2         12.8701   11.0358    0.1573 H.t3p   108 HOH    0.0000
   1013 O          13.0860   30.1390   10.7630 O.t3p   109 HOH    0.0000
   1014 H1         12.2402   29.7042   10.6542 H.t3p   109 HOH    0.0000
   1015 H2         12.9646   30.9587   11.2421 H.t3p   109 HOH    0.0000
@<TRIPOS>BOND
     1    6   29 1
     2   37   62 1
     3   70   94 1
     4  102  127 1
     5  135  159 1
     6  167  191 1
     7  199  223 1
     8  231  255 1
     9  263  285 1
    10  293  317 1
    11  325  347 1
    12  386  409 1
    13  417  442 1
    14  450  474 1
    15  482  507 1
    16  515  539 1
    17  547  571 1
    18  579  603 1
    19  611  635 1
    20  643  665 1
    21  673  697 1
    22  705  727 1
    23    1    2 1
    24    2    3 1
    25    3    4 1
    26    3    5 1
    27    4    8 1
    28    5    6 1
    29    5    7 1
    30    7    8 1
    31    8    9 1
    32    9   10 am
    33    9   16 1
    34   10   11 2
    35   10   12 1
    36   12   13 2
    37   13   14 2
    38   13   15 2
    39   15   16 2
    40   29   30 1
    41   29   31 1
    42   29   32 1
    43   32   33 1
    44   33   34 1
    45   34   35 1
    46   34   36 1
    47   35   39 1
    48   36   37 1
    49   36   38 1
    50   38   39 1
    51   39   40 1
    52   40   41 ar
    53   40   50 ar
    54   41   42 ar
    55   42   43 ar
    56   43   44 1
    57   43   50 ar
    58   44   45 2
    59   44   46 am
    60   46   47 1
    61   47   48 2
    62   47   49 2
    63   49   50 1
    64   62   63 1
    65   62   64 1
    66   62   65 1
    67   65   66 1
    68   66   67 1
    69   67   68 1
    70   67   69 1
    71   68   72 1
    72   69   70 1
    73   69   71 1
    74   71   72 1
    75   72   73 1
    76   73   74 am
    77   73   81 1
    78   74   75 2
    79   74   76 am
    80   76   77 am
    81   77   78 2
    82   77   79 1
    83   79   80 1
    84   79   81 2
    85   94   95 1
    86   94   96 1
    87   94   97 1
    88   97   98 1
    89   98   99 1
    90   99  100 1
    91   99  101 1
    92  100  104 1
    93  101  102 1
    94  101  103 1
    95  103  104 1
    96  104  105 1
    97  105  106 ar
    98  105  115 ar
    99  106  107 ar
   100  107  108 ar
   101  108  109 1
   102  108  115 ar
   103  109  110 2
   104  109  111 am
   105  111  112 1
   106  112  113 2
   107  112  114 2
   108  114  115 1
   109  127  128 1
   110  127  129 1
   111  127  130 1
   112  130  131 1
   113  131  132 1
   114  132  133 1
   115  132  134 1
   116  133  137 1
   117  134  135 1
   118  134  136 1
   119  136  137 1
   120  137  138 1
   121  138  139 ar
   122  138  147 ar
   123  139  140 ar
   124  140  141 ar
   125  141  142 ar
   126  141  147 ar
   127  142  143 1
   128  142  144 ar
   129  144  145 ar
   130  145  146 ar
   131  146  147 ar
   132  159  160 1
   133  159  161 1
   134  159  162 1
   135  162  163 1
   136  163  164 1
   137  164  165 1
   138  164  166 1
   139  165  169 1
   140  166  167 1
   141  166  168 1
   142  168  169 1
   143  169  170 1
   144  170  171 ar
   145  170  179 ar
   146  171  172 ar
   147  172  173 ar
   148  173  174 ar
   149  173  179 ar
   150  174  175 1
   151  174  176 ar
   152  176  177 ar
   153  177  178 ar
   154  178  179 ar
   155  191  192 1
   156  191  193 1
   157  191  194 1
   158  194  195 1
   159  195  196 1
   160  196  197 1
   161  196  198 1
   162  197  201 1
   163  198  199 1
   164  198  200 1
   165  200  201 1
   166  201  202 1
   167  202  203 am
   168  202  210 1
   169  203  204 2
   170  203  205 am
   171  205  206 am
   172  206  207 2
   173  206  208 1
   174  208  209 1
   175  208  210 2
   176  223  224 1
   177  223  225 1
   178  223  226 1
   179  226  227 1
   180  227  228 1
   181  228  229 1
   182  228  230 1
   183  229  233 1
   184  230  231 1
   185  230  232 1
   186  232  233 1
   187  233  234 1
   188  234  235 am
   189  234  242 1
   190  235  236 2
   191  235  237 am
   192  237  238 am
   193  238  239 2
   194  238  240 1
   195  240  241 1
   196  240  242 2
   197  255  256 1
   198  255  257 1
   199  255  258 1
   200  258  259 1
   201  259  260 1
   202  260  261 1
   203  260  262 1
   204  261  265 1
   205  262  263 1
   206  262  264 1
   207  264  265 1
   208  265  266 1
   209  266  267 am
   210  266  273 1
   211  267  268 2
   212  267  269 1
   213  269  270 2
   214  270  271 2
   215  270  272 2
   216  272  273 2
   217  285  286 1
   218  285  287 1
   219  285  288 1
   220  288  289 1
   221  289  290 1
   222  290  291 1
   223  290  292 1
   224  291  295 1
   225  292  293 1
   226  292  294 1
   227  294  295 1
   228  295  296 1
   229  296  297 ar
   230  296  305 ar
   231  297  298 ar
   232  298  299 ar
   233  299  300 ar
   234  299  305 ar
   235  300  301 1
   236  300  302 ar
   237  302  303 ar
   238  303  304 ar
   239  304  305 ar
   240  317  318 1
   241  317  319 1
   242  317  320 1
   243  320  321 1
   244  321  322 1
   245  322  323 1
   246  322  324 1
   247  323  327 1
   248  324  325 1
   249  324  326 1
   250  326  327 1
   251  327  328 1
   252  328  329 am
   253  328  335 1
   254  329  330 2
   255  329  331 1
   256  331  332 2
   257  332  333 2
   258  332  334 2
   259  334  335 2
   260  347  348 1
   261  347  349 1
   262  347  350 1
   263  350  351 1
   264  351  352 1
   265  352  353 1
   266  352  354 1
   267  353  357 1
   268  354  355 1
   269  354  356 1
   270  356  357 1
   271  357  358 1
   272  358  359 ar
   273  358  368 ar
   274  359  360 ar
   275  360  361 ar
   276  361  362 1
   277  361  368 ar
   278  362  363 2
   279  362  364 am
   280  364  365 1
   281  365  366 2
   282  365  367 2
   283  367  368 1
   284  381  382 1
   285  382  383 1
   286  383  384 1
   287  383  385 1
   288  384  388 1
   289  385  386 1
   290  385  387 1
   291  387  388 1
   292  388  389 1
   293  389  390 am
   294  389  396 1
   295  390  391 2
   296  390  392 1
   297  392  393 2
   298  393  394 2
   299  393  395 2
   300  395  396 2
   301  409  410 1
   302  409  411 1
   303  409  412 1
   304  412  413 1
   305  413  414 1
   306  414  415 1
   307  414  416 1
   308  415  419 1
   309  416  417 1
   310  416  418 1
   311  418  419 1
   312  419  420 1
   313  420  421 ar
   314  420  430 ar
   315  421  422 ar
   316  422  423 ar
   317  423  424 1
   318  423  430 ar
   319  424  425 2
   320  424  426 am
   321  426  427 1
   322  427  428 2
   323  427  429 2
   324  429  430 1
   325  442  443 1
   326  442  444 1
   327  442  445 1
   328  445  446 1
   329  446  447 1
   330  447  448 1
   331  447  449 1
   332  448  452 1
   333  449  450 1
   334  449  451 1
   335  451  452 1
   336  452  453 1
   337  453  454 am
   338  453  461 1
   339  454  455 2
   340  454  456 am
   341  456  457 am
   342  457  458 2
   343  457  459 1
   344  459  460 1
   345  459  461 2
   346  474  475 1
   347  474  476 1
   348  474  477 1
   349  477  478 1
   350  478  479 1
   351  479  480 1
   352  479  481 1
   353  480  484 1
   354  481  482 1
   355  481  483 1
   356  483  484 1
   357  484  485 1
   358  485  486 ar
   359  485  495 ar
   360  486  487 ar
   361  487  488 ar
   362  488  489 1
   363  488  495 ar
   364  489  490 2
   365  489  491 am
   366  491  492 1
   367  492  493 2
   368  492  494 2
   369  494  495 1
   370  507  508 1
   371  507  509 1
   372  507  510 1
   373  510  511 1
   374  511  512 1
   375  512  513 1
   376  512  514 1
   377  513  517 1
   378  514  515 1
   379  514  516 1
   380  516  517 1
   381  517  518 1
   382  518  519 ar
   383  518  527 ar
   384  519  520 ar
   385  520  521 ar
   386  521  522 ar
   387  521  527 ar
   388  522  523 1
   389  522  524 ar
   390  524  525 ar
   391  525  526 ar
   392  526  527 ar
   393  539  540 1
   394  539  541 1
   395  539  542 1
   396  542  543 1
   397  543  544 1
   398  544  545 1
   399  544  546 1
   400  545  549 1
   401  546  547 1
   402  546  548 1
   403  548  549 1
   404  549  550 1
   405  550  551 ar
   406  550  559 ar
   407  551  552 ar
   408  552  553 ar
   409  553  554 ar
   410  553  559 ar
   411  554  555 1
   412  554  556 ar
   413  556  557 ar
   414  557  558 ar
   415  558  559 ar
   416  571  572 1
   417  571  573 1
   418  571  574 1
   419  574  575 1
   420  575  576 1
   421  576  577 1
   422  576  578 1
   423  577  581 1
   424  578  579 1
   425  578  580 1
   426  580  581 1
   427  581  582 1
   428  582  583 am
   429  582  590 1
   430  583  584 2
   431  583  585 am
   432  585  586 am
   433  586  587 2
   434  586  588 1
   435  588  589 1
   436  588  590 2
   437  603  604 1
   438  603  605 1
   439  603  606 1
   440  606  607 1
   441  607  608 1
   442  608  609 1
   443  608  610 1
   444  609  613 1
   445  610  611 1
   446  610  612 1
   447  612  613 1
   448  613  614 1
   449  614  615 am
   450  614  622 1
   451  615  616 2
   452  615  617 am
   453  617  618 am
   454  618  619 2
   455  618  620 1
   456  620  621 1
   457  620  622 2
   458  635  636 1
   459  635  637 1
   460  635  638 1
   461  638  639 1
   462  639  640 1
   463  640  641 1
   464  640  642 1
   465  641  645 1
   466  642  643 1
   467  642  644 1
   468  644  645 1
   469  645  646 1
   470  646  647 am
   471  646  653 1
   472  647  648 2
   473  647  649 1
   474  649  650 2
   475  650  651 2
   476  650  652 2
   477  652  653 2
   478  665  666 1
   479  665  667 1
   480  665  668 1
   481  668  669 1
   482  669  670 1
   483  670  671 1
   484  670  672 1
   485  671  675 1
   486  672  673 1
   487  672  674 1
   488  674  675 1
   489  675  676 1
   490  676  677 ar
   491  676  685 ar
   492  677  678 ar
   493  678  679 ar
   494  679  680 ar
   495  679  685 ar
   496  680  681 1
   497  680  682 ar
   498  682  683 ar
   499  683  684 ar
   500  684  685 ar
   501  697  698 1
   502  697  699 1
   503  697  700 1
   504  700  701 1
   505  701  702 1
   506  702  703 1
   507  702  704 1
   508  703  707 1
   509  704  705 1
   510  704  706 1
   511  706  707 1
   512  707  708 1
   513  708  709 am
   514  708  715 1
   515  709  710 2
   516  709  711 1
   517  711  712 2
   518  712  713 2
   519  712  714 2
   520  714  715 2
   521  727  728 1
   522  727  729 1
   523  727  730 1
   524  730  731 1
   525  731  732 1
   526  732  733 1
   527  732  734 1
   528  733  737 1
   529  734  735 1
   530  734  736 1
   531  736  737 1
   532  737  738 1
   533  738  739 ar
   534  738  748 ar
   535  739  740 ar
   536  740  741 ar
   537  741  742 1
   538  741  748 ar
   539  742  743 2
   540  742  744 am
   541  744  745 1
   542  745  746 2
   543  745  747 2
   544  747  748 1
   545   17    2 1
   546   18    2 1
   547   19    3 1
   548   20    5 1
   549   21    7 1
   550   22    7 1
   551   23    8 1
   552   24   15 1
   553   25   16 1
   554   51   33 1
   555   52   33 1
   556   53   34 1
   557   54   36 1
   558   55   38 1
   559   56   38 1
   560   57   39 1
   561   58   41 1
   562   59   46 1
   563   82   66 1
   564   83   66 1
   565   84   67 1
   566   85   69 1
   567   86   71 1
   568   87   71 1
   569   88   72 1
   570   89   76 1
   571   90   81 1
   572  116   98 1
   573  117   98 1
   574  118   99 1
   575  119  101 1
   576  120  103 1
   577  121  103 1
   578  122  104 1
   579  123  106 1
   580  124  111 1
   581  148  131 1
   582  149  131 1
   583  150  132 1
   584  151  134 1
   585  152  136 1
   586  153  136 1
   587  154  137 1
   588  155  139 1
   589  156  145 1
   590  180  163 1
   591  181  163 1
   592  182  164 1
   593  183  166 1
   594  184  168 1
   595  185  168 1
   596  186  169 1
   597  187  171 1
   598  188  177 1
   599  211  195 1
   600  212  195 1
   601  213  196 1
   602  214  198 1
   603  215  200 1
   604  216  200 1
   605  217  201 1
   606  218  205 1
   607  219  210 1
   608  243  227 1
   609  244  227 1
   610  245  228 1
   611  246  230 1
   612  247  232 1
   613  248  232 1
   614  249  233 1
   615  250  237 1
   616  251  242 1
   617  274  259 1
   618  275  259 1
   619  276  260 1
   620  277  262 1
   621  278  264 1
   622  279  264 1
   623  280  265 1
   624  281  272 1
   625  282  273 1
   626  306  289 1
   627  307  289 1
   628  308  290 1
   629  309  292 1
   630  310  294 1
   631  311  294 1
   632  312  295 1
   633  313  297 1
   634  314  303 1
   635  336  321 1
   636  337  321 1
   637  338  322 1
   638  339  324 1
   639  340  326 1
   640  341  326 1
   641  342  327 1
   642  343  334 1
   643  344  335 1
   644  369  351 1
   645  370  351 1
   646  371  352 1
   647  372  354 1
   648  373  356 1
   649  374  356 1
   650  375  357 1
   651  376  359 1
   652  377  364 1
   653  397  382 1
   654  398  382 1
   655  399  383 1
   656  400  385 1
   657  401  387 1
   658  402  387 1
   659  403  388 1
   660  404  395 1
   661  405  396 1
   662  431  413 1
   663  432  413 1
   664  433  414 1
   665  434  416 1
   666  435  418 1
   667  436  418 1
   668  437  419 1
   669  438  421 1
   670  439  426 1
   671  462  446 1
   672  463  446 1
   673  464  447 1
   674  465  449 1
   675  466  451 1
   676  467  451 1
   677  468  452 1
   678  469  456 1
   679  470  461 1
   680  496  478 1
   681  497  478 1
   682  498  479 1
   683  499  481 1
   684  500  483 1
   685  501  483 1
   686  502  484 1
   687  503  486 1
   688  504  491 1
   689  528  511 1
   690  529  511 1
   691  530  512 1
   692  531  514 1
   693  532  516 1
   694  533  516 1
   695  534  517 1
   696  535  519 1
   697  536  525 1
   698  560  543 1
   699  561  543 1
   700  562  544 1
   701  563  546 1
   702  564  548 1
   703  565  548 1
   704  566  549 1
   705  567  551 1
   706  568  557 1
   707  591  575 1
   708  592  575 1
   709  593  576 1
   710  594  578 1
   711  595  580 1
   712  596  580 1
   713  597  581 1
   714  598  585 1
   715  599  590 1
   716  623  607 1
   717  624  607 1
   718  625  608 1
   719  626  610 1
   720  627  612 1
   721  628  612 1
   722  629  613 1
   723  630  617 1
   724  631  622 1
   725  654  639 1
   726  655  639 1
   727  656  640 1
   728  657  642 1
   729  658  644 1
   730  659  644 1
   731  660  645 1
   732  661  652 1
   733  662  653 1
   734  686  669 1
   735  687  669 1
   736  688  670 1
   737  689  672 1
   738  690  674 1
   739  691  674 1
   740  692  675 1
   741  693  677 1
   742  694  683 1
   743  716  701 1
   744  717  701 1
   745  718  702 1
   746  719  704 1
   747  720  706 1
   748  721  706 1
   749  722  707 1
   750  723  714 1
   751  724  715 1
   752  749  731 1
   753  750  731 1
   754  751  732 1
   755  752  734 1
   756  753  736 1
   757  754  736 1
   758  755  737 1
   759  756  739 1
   760  757  744 1
   761   26   14 1
   762   27   14 1
   763   60   48 1
   764   61   48 1
   765  125  113 1
   766  126  113 1
   767  283  271 1
   768  284  271 1
   769  345  333 1
   770  346  333 1
   771  378  366 1
   772  379  366 1
   773  406  394 1
   774  407  394 1
   775  440  428 1
   776  441  428 1
   777  505  493 1
   778  506  493 1
   779  663  651 1
   780  664  651 1
   781  725  713 1
   782  726  713 1
   783  758  746 1
   784  759  746 1
   785  765  764 1
   786  766  764 1
   787  915  914 1
   788  916  914 1
   789  813  812 1
   790  814  812 1
   791  975  974 1
   792  976  974 1
   793  786  785 1
   794  787  785 1
   795  760  735 1
   796  963  962 1
   797  964  962 1
   798  966  965 1
   799  967  965 1
   800  984  983 1
   801  985  983 1
   802  825  824 1
   803  826  824 1
   804  792  791 1
   805  793  791 1
   806  777  776 1
   807  778  776 1
   808  876  875 1
   809  877  875 1
   810  408  381 1
   811  882  881 1
   812  883  881 1
   813  948  947 1
   814  949  947 1
   815  981  980 1
   816  982  980 1
   817  867  866 1
   818  868  866 1
   819  157  143 1
   820  158  143 1
   821  189  175 1
   822  190  175 1
   823  315  301 1
   824  316  301 1
   825  537  523 1
   826  538  523 1
   827  569  555 1
   828  570  555 1
   829  695  681 1
   830  696  681 1
   831  762  761 1
   832  763  761 1
   833  768  767 1
   834  769  767 1
   835  771  770 1
   836  772  770 1
   837  780  779 1
   838  781  779 1
   839  783  782 1
   840  784  782 1
   841  789  788 1
   842  790  788 1
   843  795  794 1
   844  796  794 1
   845  801  800 1
   846  802  800 1
   847  804  803 1
   848  805  803 1
   849  807  806 1
   850  808  806 1
   851  816  815 1
   852  817  815 1
   853  819  818 1
   854  820  818 1
   855  822  821 1
   856  823  821 1
   857  831  830 1
   858  832  830 1
   859  834  833 1
   860  835  833 1
   861  837  836 1
   862  838  836 1
   863  840  839 1
   864  841  839 1
   865  849  848 1
   866  850  848 1
   867  852  851 1
   868  853  851 1
   869  855  854 1
   870  856  854 1
   871  858  857 1
   872  859  857 1
   873  861  860 1
   874  862  860 1
   875  864  863 1
   876  865  863 1
   877  870  869 1
   878  871  869 1
   879  879  878 1
   880  880  878 1
   881  888  887 1
   882  889  887 1
   883  891  890 1
   884  892  890 1
   885  894  893 1
   886  895  893 1
   887  900  899 1
   888  901  899 1
   889  903  902 1
   890  904  902 1
   891  906  905 1
   892  907  905 1
   893  909  908 1
   894  910  908 1
   895  918  917 1
   896  919  917 1
   897  921  920 1
   898  922  920 1
   899  924  923 1
   900  925  923 1
   901  927  926 1
   902  928  926 1
   903  930  929 1
   904  931  929 1
   905  933  932 1
   906  934  932 1
   907  936  935 1
   908  937  935 1
   909  939  938 1
   910  940  938 1
   911  945  944 1
   912  946  944 1
   913  957  956 1
   914  958  956 1
   915  969  968 1
   916  970  968 1
   917  978  977 1
   918  979  977 1
   919  987  986 1
   920  988  986 1
   921  990  989 1
   922  991  989 1
   923  993  992 1
   924  994  992 1
   925  999  998 1
   926 1000  998 1
   927 1002 1001 1
   928 1003 1001 1
   929 1005 1004 1
   930 1006 1004 1
   931 1008 1007 1
   932 1009 1007 1
   933 1011 1010 1
   934 1012 1010 1
   935 1014 1013 1
   936 1015 1013 1
   937   28    1 1
   938  380  355 1
   939  774  773 1
   940  775  773 1
   941  798  797 1
   942  799  797 1
   943  810  809 1
   944  811  809 1
   945  828  827 1
   946  829  827 1
   947  843  842 1
   948  844  842 1
   949  846  845 1
   950  847  845 1
   951  873  872 1
   952  874  872 1
   953  885  884 1
   954  886  884 1
   955  897  896 1
   956  898  896 1
   957  912  911 1
   958  913  911 1
   959  942  941 1
   960  943  941 1
   961  951  950 1
   962  952  950 1
   963  954  953 1
   964  955  953 1
   965  960  959 1
   966  961  959 1
   967  972  971 1
   968  973  971 1
   969  996  995 1
   970  997  995 1
   971   91   80 1
   972   92   80 1
   973   93   80 1
   974  220  209 1
   975  221  209 1
   976  222  209 1
   977  252  241 1
   978  253  241 1
   979  254  241 1
   980  471  460 1
   981  472  460 1
   982  473  460 1
   983  600  589 1
   984  601  589 1
   985  602  589 1
   986  632  621 1
   987  633  621 1
   988  634  621 1
@<TRIPOS>SUBSTRUCTURE
     1  DC     3 RESIDUE           4 A      DC     1 ROOT
     2  DG    34 RESIDUE           4 A      DG     2
     3  DT    67 RESIDUE           4 A      DT     2
     4  DG    99 RESIDUE           4 A      DG     2
     5  DA   132 RESIDUE           4 A      DA     2
     6  DA   164 RESIDUE           4 A      DA     2
     7  DT   196 RESIDUE           4 A      DT     2
     8  DT   228 RESIDUE           4 A      DT     2
     9  DC   260 RESIDUE           4 A      DC     2
    10  DA   290 RESIDUE           4 A      DA     2
    11  DC   322 RESIDUE           4 A      DC     2
    12  DG   352 RESIDUE           4 A      DG     1
    13  DC   383 RESIDUE           4 B      DC     1 ROOT
    14  DG   414 RESIDUE           4 B      DG     2
    15  DT   447 RESIDUE           4 B      DT     2
    16  DG   479 RESIDUE           4 B      DG     2
    17  DA   512 RESIDUE           4 B      DA     2
    18  DA   544 RESIDUE           4 B      DA     2
    19  DT   576 RESIDUE           4 B      DT     2
    20  DT   608 RESIDUE           4 B      DT     2
    21  DC   640 RESIDUE           4 B      DC     2
    22  DA   670 RESIDUE           4 B      DA     2
    23  DC   702 RESIDUE           4 B      DC     2
    24  DG   732 RESIDUE           4 B      DG     1
    25 HOH   761 RESIDUE           4 A     HOH     0 ROOT
    26 HOH   764 RESIDUE           4 A     HOH     0 ROOT
    27 HOH   767 RESIDUE           4 A     HOH     0 ROOT
    28 HOH   770 RESIDUE           4 A     HOH     0 ROOT
    29 HOH   773 RESIDUE           4 A     HOH     0 ROOT
    30 HOH   776 RESIDUE           4 A     HOH     0 ROOT
    31 HOH   779 RESIDUE           4 A     HOH     0 ROOT
    32 HOH   782 RESIDUE           4 A     HOH     0 ROOT
    33 HOH   785 RESIDUE           4 A     HOH     0 ROOT
    34 HOH   788 RESIDUE           4 A     HOH     0 ROOT
    35 HOH   791 RESIDUE           4 A     HOH     0 ROOT
    36 HOH   794 RESIDUE           4 A     HOH     0 ROOT
    37 HOH   797 RESIDUE           4 A     HOH     0 ROOT
    38 HOH   800 RESIDUE           4 A     HOH     0 ROOT
    39 HOH   803 RESIDUE           4 A     HOH     0 ROOT
    40 HOH   806 RESIDUE           4 A     HOH     0 ROOT
    41 HOH   809 RESIDUE           4 A     HOH     0 ROOT
    42 HOH   812 RESIDUE           4 A     HOH     0 ROOT
    43 HOH   815 RESIDUE           4 A     HOH     0 ROOT
    44 HOH   818 RESIDUE           4 A     HOH     0 ROOT
    45 HOH   821 RESIDUE           4 A     HOH     0 ROOT
    46 HOH   824 RESIDUE           4 A     HOH     0 ROOT
    47 HOH   827 RESIDUE           4 A     HOH     0 ROOT
    48 HOH   830 RESIDUE           4 A     HOH     0 ROOT
    49 HOH   833 RESIDUE           4 A     HOH     0 ROOT
    50 HOH   836 RESIDUE           4 A     HOH     0 ROOT
    51 HOH   839 RESIDUE           4 A     HOH     0 ROOT
    52 HOH   842 RESIDUE           4 A     HOH     0 ROOT
    53 HOH   845 RESIDUE           4 A     HOH     0 ROOT
    54 HOH   848 RESIDUE           4 A     HOH     0 ROOT
    55 HOH   851 RESIDUE           4 A     HOH     0 ROOT
    56 HOH   854 RESIDUE           4 A     HOH     0 ROOT
    57 HOH   857 RESIDUE           4 A     HOH     0 ROOT
    58 HOH   860 RESIDUE           4 A     HOH     0 ROOT
    59 HOH   863 RESIDUE           4 A     HOH     0 ROOT
    60 HOH   866 RESIDUE           4 A     HOH     0 ROOT
    61 HOH   869 RESIDUE           4 A     HOH     0 ROOT
    62 HOH   872 RESIDUE           4 A     HOH     0 ROOT
    63 HOH   875 RESIDUE           4 A     HOH     0 ROOT
    64 HOH   878 RESIDUE           4 B     HOH     0 ROOT
    65 HOH   881 RESIDUE           4 B     HOH     0 ROOT
    66 HOH   884 RESIDUE           4 B     HOH     0 ROOT
    67 HOH   887 RESIDUE           4 B     HOH     0 ROOT
    68 HOH   890 RESIDUE           4 B     HOH     0 ROOT
    69 HOH   893 RESIDUE           4 B     HOH     0 ROOT
    70 HOH   896 RESIDUE           4 B     HOH     0 ROOT
    71 HOH   899 RESIDUE           4 B     HOH     0 ROOT
    72 HOH   902 RESIDUE           4 B     HOH     0 ROOT
    73 HOH   905 RESIDUE           4 B     HOH     0 ROOT
    74 HOH   908 RESIDUE           4 B     HOH     0 ROOT
    75 HOH   911 RESIDUE           4 B     HOH     0 ROOT
    76 HOH   914 RESIDUE           4 B     HOH     0 ROOT
    77 HOH   917 RESIDUE           4 B     HOH     0 ROOT
    78 HOH   920 RESIDUE           4 B     HOH     0 ROOT
    79 HOH   923 RESIDUE           4 B     HOH     0 ROOT
    80 HOH   926 RESIDUE           4 B     HOH     0 ROOT
    81 HOH   929 RESIDUE           4 B     HOH     0 ROOT
    82 HOH   932 RESIDUE           4 B     HOH     0 ROOT
    83 HOH   935 RESIDUE           4 B     HOH     0 ROOT
    84 HOH   938 RESIDUE           4 B     HOH     0 ROOT
    85 HOH   941 RESIDUE           4 B     HOH     0 ROOT
    86 HOH   944 RESIDUE           4 B     HOH     0 ROOT
    87 HOH   947 RESIDUE           4 B     HOH     0 ROOT
    88 HOH   950 RESIDUE           4 B     HOH     0 ROOT
    89 HOH   953 RESIDUE           4 B     HOH     0 ROOT
    90 HOH   956 RESIDUE           4 B     HOH     0 ROOT
    91 HOH   959 RESIDUE           4 B     HOH     0 ROOT
    92 HOH   962 RESIDUE           4 B     HOH     0 ROOT
    93 HOH   965 RESIDUE           4 B     HOH     0 ROOT
    94 HOH   968 RESIDUE           4 B     HOH     0 ROOT
    95 HOH   971 RESIDUE           4 B     HOH     0 ROOT
    96 HOH   974 RESIDUE           4 B     HOH     0 ROOT
    97 HOH   977 RESIDUE           4 B     HOH     0 ROOT
    98 HOH   980 RESIDUE           4 B     HOH     0 ROOT
    99 HOH   983 RESIDUE           4 B     HOH     0 ROOT
   100 HOH   986 RESIDUE           4 B     HOH     0 ROOT
   101 HOH   989 RESIDUE           4 B     HOH     0 ROOT
   102 HOH   992 RESIDUE           4 B     HOH     0 ROOT
   103 HOH   995 RESIDUE           4 B     HOH     0 ROOT
   104 HOH   998 RESIDUE           4 B     HOH     0 ROOT
   105 HOH  1001 RESIDUE           4 B     HOH     0 ROOT
   106 HOH  1004 RESIDUE           4 B     HOH     0 ROOT
   107 HOH  1007 RESIDUE           4 B     HOH     0 ROOT
   108 HOH  1010 RESIDUE           4 B     HOH     0 ROOT
   109 HOH  1013 RESIDUE           4 B     HOH     0 ROOT
