@<TRIPOS>MOLECULE
dna-seg-00-bp34
2162 2330 1 0 0
BIOPOLYMER
NO_CHARGES


@<TRIPOS>ATOM
      1 P          7.2309     6.9351   -31.3255 P.3        1 DG      0.0000
      2 OP1        8.6614     7.3294   -31.3270 O.co2      1 DG      0.0000
      3 OP2        7.0769     5.8305   -30.2698 O.co2      1 DG      0.0000
      4 O5'        6.1640     8.1018   -31.1471 O.3        1 DG      0.0000
      5 C5'        5.3459     8.7453   -32.1471 C.3        1 DG      0.0000
      6 C4'        3.9159     8.7598   -31.6483 C.3        1 DG      0.0000
      7 O4'        3.1961     7.6207   -32.0674 O.3        1 DG      0.0000
      8 C3'        3.6872     8.8913   -30.1561 C.3        1 DG      0.0000
      9 O3'        2.8047    10.0027   -29.8441 O.3        1 DG      0.0000
     10 C2'        3.1295     7.5452   -29.7342 C.3        1 DG      0.0000
     11 C1'        2.4729     7.0246   -30.9899 C.3        1 DG      0.0000
     12 N9         2.5343     5.5520   -31.0189 N.ar       1 DG      0.0000
     13 C8         3.6040     4.7191   -30.7900 C.ar       1 DG      0.0000
     14 N7         3.3170     3.4400   -30.8797 N.ar       1 DG      0.0000
     15 C5         1.9612     3.4263   -31.1968 C.ar       1 DG      0.0000
     16 C6         1.0554     2.3606   -31.4227 C.2        1 DG      0.0000
     17 O6         1.2817     1.1504   -31.4014 O.2        1 DG      0.0000
     18 N1        -0.2291     2.7378   -31.7042 N.am       1 DG      0.0000
     19 C2        -0.6044     3.9754   -31.7648 C.2        1 DG      0.0000
     20 N2        -1.8435     4.0517   -32.0616 N.pl3      1 DG      0.0000
     21 N3         0.2108     5.0924   -31.5561 N.2        1 DG      0.0000
     22 C4         1.4681     4.7148   -31.2835 C.ar       1 DG      0.0000
     23 H5'        5.6918     9.7667   -32.3058 H          1 DG      0.0000
     24 H5''       5.4030     8.1886   -33.0825 H          1 DG      0.0000
     25 H4'        3.4339     9.6199   -32.1130 H          1 DG      0.0000
     26 H3'        4.6459     9.0493   -29.6621 H          1 DG      0.0000
     27 H2'        3.9274     6.8786   -29.4072 H          1 DG      0.0000
     28 H2''       2.3906     7.6708   -28.9427 H          1 DG      0.0000
     29 H1'        1.4328     7.3492   -31.0218 H          1 DG      0.0000
     30 H8         4.5934     5.0842   -30.5570 H          1 DG      0.0000
     31 H1        -0.9165     2.0173   -31.8726 H          1 DG      0.0000
     32 H21       -2.3810     3.2089   -32.2060 H          1 DG      0.0000
     33 H22       -2.2864     4.9548   -32.1521 H          1 DG      0.0000
     34 P          2.1648    10.2085   -28.4156 P.3        2 DT      0.0000
     35 OP1        2.1144    11.6248   -27.9039 O.co2      2 DT      0.0000
     36 OP2        3.1743     9.4964   -27.4969 O.co2      2 DT      0.0000
     37 O5'        0.8200     9.4380   -28.3870 O.3        2 DT      0.0000
     38 C5'       -0.4720    10.0894   -28.5310 C.3        2 DT      0.0000
     39 C4'       -1.4780     8.9588   -28.4735 C.3        2 DT      0.0000
     40 O4'       -0.8890     7.7068   -28.7486 O.3        2 DT      0.0000
     41 C3'       -2.1937     8.7642   -27.1607 C.3        2 DT      0.0000
     42 O3'       -3.5892     9.0413   -27.3490 O.3        2 DT      0.0000
     43 C2'       -1.9584     7.3057   -26.7685 C.3        2 DT      0.0000
     44 C1'       -1.7198     6.6869   -28.1213 C.3        2 DT      0.0000
     45 N1        -0.9165     5.4679   -28.0246 N.am       2 DT      0.0000
     46 C2        -1.5560     4.2743   -28.2226 C.2        2 DT      0.0000
     47 O2        -2.7595     4.2020   -28.4607 O.2        2 DT      0.0000
     48 N3        -0.7958     3.1387   -28.1415 N.am       2 DT      0.0000
     49 C4         0.5318     3.1598   -27.8856 C.2        2 DT      0.0000
     50 O4         1.0967     2.0357   -27.8403 O.2        2 DT      0.0000
     51 C5         1.1845     4.4185   -27.6859 C.2        2 DT      0.0000
     52 C7         2.6507     4.4857   -27.4060 C.3        2 DT      0.0000
     53 C6         0.4331     5.5241   -27.7674 C.2        2 DT      0.0000
     54 H5'       -0.6397    10.7953   -27.7175 H          2 DT      0.0000
     55 H5''      -0.5324    10.5999   -29.4922 H          2 DT      0.0000
     56 H4'       -2.2319     9.1462   -29.2380 H          2 DT      0.0000
     57 H3'       -1.7774     9.4287   -26.4037 H          2 DT      0.0000
     58 H2'       -1.0889     7.1999   -26.1197 H          2 DT      0.0000
     59 H2''      -2.8463     6.8822   -26.2993 H          2 DT      0.0000
     60 H1'       -2.6492     6.5230   -28.6666 H          2 DT      0.0000
     61 H3        -1.2466     2.2455   -28.2790 H          2 DT      0.0000
     62 H6         0.9007     6.4875   -27.6270 H          2 DT      0.0000
     63 H71        3.1808     4.7806   -28.3115 H          2 DT      0.0000
     64 H72        3.0035     3.5068   -27.0812 H          2 DT      0.0000
     65 H73        2.8375     5.2182   -26.6207 H          2 DT      0.0000
     66 P         -4.2699     9.7792   -26.0690 P.3        3 DG      0.0000
     67 OP1       -5.2379    10.7132   -26.7841 O.co2      3 DG      0.0000
     68 OP2       -3.2350    10.4643   -25.3155 O.co2      3 DG      0.0000
     69 O5'       -4.9694     8.4362   -25.4595 O.3        3 DG      0.0000
     70 C5'       -5.6334     7.6925   -26.5501 C.3        3 DG      0.0000
     71 C4'       -5.9684     6.3257   -26.0300 C.3        3 DG      0.0000
     72 O4'       -4.9961     5.3309   -26.2106 O.3        3 DG      0.0000
     73 C3'       -6.3194     6.3356   -24.5220 C.3        3 DG      0.0000
     74 O3'       -7.6171     5.7129   -24.3632 O.3        3 DG      0.0000
     75 C2'       -5.1497     5.6301   -23.8694 C.3        3 DG      0.0000
     76 C1'       -4.7443     4.6356   -24.9510 C.3        3 DG      0.0000
     77 N9        -3.3538     4.1995   -24.7815 N.ar       3 DG      0.0000
     78 C8        -2.2580     4.9457   -24.4453 C.ar       3 DG      0.0000
     79 N7        -1.1365     4.2647   -24.3595 N.ar       3 DG      0.0000
     80 C5        -1.5316     2.9703   -24.6895 C.ar       3 DG      0.0000
     81 C6        -0.7817     1.7631   -24.7839 C.2        3 DG      0.0000
     82 O6         0.4321     1.5982   -24.5915 O.2        3 DG      0.0000
     83 N1        -1.5267     0.6556   -25.1189 N.am       3 DG      0.0000
     84 C2        -2.8677     0.7301   -25.3427 C.2        3 DG      0.0000
     85 N2        -3.4289    -0.4463   -25.6515 N.pl3      3 DG      0.0000
     86 N3        -3.6108     1.8322   -25.2716 N.2        3 DG      0.0000
     87 C4        -2.8850     2.9152   -24.9451 C.ar       3 DG      0.0000
     88 H5'       -6.5448     8.2092   -26.8506 H          3 DG      0.0000
     89 H5''      -4.9593     7.6078   -27.4025 H          3 DG      0.0000
     90 H4'       -6.8614     5.9953   -26.5606 H          3 DG      0.0000
     91 H3'       -6.3655     7.3653   -24.1672 H          3 DG      0.0000
     92 H2'       -4.3408     6.3258   -23.6465 H          3 DG      0.0000
     93 H2''      -5.4691     5.1088   -22.9670 H          3 DG      0.0000
     94 H1'       -5.3970     3.7646   -24.8920 H          3 DG      0.0000
     95 H8        -2.3098     6.0092   -24.2646 H          3 DG      0.0000
     96 H1        -1.0651    -0.2389   -25.2012 H          3 DG      0.0000
     97 H21       -2.8601    -1.2795   -25.7017 H          3 DG      0.0000
     98 H22       -4.4208    -0.5002   -25.8342 H          3 DG      0.0000
     99 P         -8.3333     5.6567   -22.9747 P.3        4 DA      0.0000
    100 OP1       -9.2079     6.8151   -22.6194 O.co2      4 DA      0.0000
    101 OP2       -7.0434     5.7443   -22.0790 O.co2      4 DA      0.0000
    102 O5'       -8.8717     4.1860   -22.7256 O.3        4 DA      0.0000
    103 C5'       -9.1557     3.2268   -23.7547 C.3        4 DA      0.0000
    104 C4'       -8.5199     1.9300   -23.2803 C.3        4 DA      0.0000
    105 O4'       -7.1135     2.0102   -23.3707 O.3        4 DA      0.0000
    106 C3'       -8.8492     1.4982   -21.8513 C.3        4 DA      0.0000
    107 O3'       -9.2165     0.1042   -21.7990 O.3        4 DA      0.0000
    108 C2'       -7.5378     1.8002   -21.1158 C.3        4 DA      0.0000
    109 C1'       -6.5522     1.3744   -22.1934 C.3        4 DA      0.0000
    110 N9        -5.1843     1.8506   -21.9650 N.ar       4 DA      0.0000
    111 C8        -4.7200     3.1171   -21.7493 C.ar       4 DA      0.0000
    112 N7        -3.4178     3.1863   -21.5843 N.ar       4 DA      0.0000
    113 C5        -2.9946     1.8730   -21.7245 C.ar       4 DA      0.0000
    114 C6        -1.7074     1.2946   -21.6765 C.ar       4 DA      0.0000
    115 N6        -0.5809     1.9767   -21.4568 N.pl3      4 DA      0.0000
    116 N1        -1.6692    -0.0579   -21.8663 N.ar       4 DA      0.0000
    117 C2        -2.7996    -0.7689   -22.0841 C.ar       4 DA      0.0000
    118 N3        -4.0428    -0.2930   -22.1423 N.ar       4 DA      0.0000
    119 C4        -4.0614     1.0393   -21.9555 C.ar       4 DA      0.0000
    120 H5'       -8.7182     3.5423   -24.7018 H          4 DA      0.0000
    121 H5''     -10.2329     3.0995   -23.8624 H          4 DA      0.0000
    122 H4'       -8.8496     1.1357   -23.9501 H          4 DA      0.0000
    123 H3'       -9.6545     2.1135   -21.4499 H          4 DA      0.0000
    124 H2'       -7.4420     2.8578   -20.8704 H          4 DA      0.0000
    125 H2''      -7.4365     1.1804   -20.2249 H          4 DA      0.0000
    126 H1'       -6.5614     0.2904   -22.3080 H          4 DA      0.0000
    127 H8        -5.3645     3.9831   -21.7172 H          4 DA      0.0000
    128 H2        -2.6819    -1.8332   -22.2254 H          4 DA      0.0000
    129 H61       -0.4816     2.9771   -21.5542 H          4 DA      0.0000
    130 H62        0.3005     1.5142   -21.6283 H          4 DA      0.0000
    131 P        -10.2350    -0.4942   -20.6576 P.3        5 DA      0.0000
    132 OP1      -11.4610    -1.0665   -21.3246 O.co2      5 DA      0.0000
    133 OP2      -10.4675     0.7047   -19.8266 O.co2      5 DA      0.0000
    134 O5'       -9.4434    -1.7735   -20.1267 O.3        5 DA      0.0000
    135 C5'       -9.0968    -2.8851   -20.9511 C.3        5 DA      0.0000
    136 C4'       -7.7977    -3.4731   -20.4288 C.3        5 DA      0.0000
    137 O4'       -6.7806    -2.5120   -20.4006 O.3        5 DA      0.0000
    138 C3'       -7.8282    -4.1338   -19.0614 C.3        5 DA      0.0000
    139 O3'       -7.5342    -5.5285   -19.1393 O.3        5 DA      0.0000
    140 C2'       -6.8396    -3.3043   -18.2327 C.3        5 DA      0.0000
    141 C1'       -5.9258    -2.6996   -19.2265 C.3        5 DA      0.0000
    142 N9        -5.2880    -1.3978   -18.9584 N.ar       5 DA      0.0000
    143 C8        -5.8459    -0.1477   -18.8433 C.ar       5 DA      0.0000
    144 N7        -4.9725     0.8165   -18.6740 N.ar       5 DA      0.0000
    145 C5        -3.7452     0.1623   -18.7110 C.ar       5 DA      0.0000
    146 C6        -2.4105     0.6439   -18.5905 C.ar       5 DA      0.0000
    147 N6        -2.0630     1.9103   -18.3989 N.pl3      5 DA      0.0000
    148 N1        -1.4259    -0.3072   -18.6887 N.ar       5 DA      0.0000
    149 C2        -1.7448    -1.6206   -18.8778 C.ar       5 DA      0.0000
    150 N3        -2.9643    -2.1357   -18.9856 N.ar       5 DA      0.0000
    151 C4        -3.9206    -1.1899   -18.8938 C.ar       5 DA      0.0000
    152 H5'       -8.9644    -2.5539   -21.9811 H          5 DA      0.0000
    153 H5''      -9.8850    -3.6366   -20.9051 H          5 DA      0.0000
    154 H4'       -7.4889    -4.2378   -21.1415 H          5 DA      0.0000
    155 H3'       -8.8252    -4.0116   -18.6382 H          5 DA      0.0000
    156 H2'       -7.3637    -2.5301   -17.6724 H          5 DA      0.0000
    157 H2''      -6.2832    -3.9499   -17.5531 H          5 DA      0.0000
    158 H1'       -5.1494    -3.4241   -19.4726 H          5 DA      0.0000
    159 H8        -6.9109     0.0262   -18.8881 H          5 DA      0.0000
    160 H2        -0.9193    -2.3135   -18.9469 H          5 DA      0.0000
    161 H61       -2.7189     2.6057   -18.0727 H          5 DA      0.0000
    162 H62       -1.1101     2.1883   -18.5857 H          5 DA      0.0000
    163 P         -8.1655    -6.6823   -18.1830 P.3        6 DT      0.0000
    164 OP1       -8.5391    -7.9268   -18.9804 O.co2      6 DT      0.0000
    165 OP2       -9.2287    -6.1415   -17.3624 O.co2      6 DT      0.0000
    166 O5'       -6.8335    -7.2008   -17.3693 O.3        6 DT      0.0000
    167 C5'       -5.6815    -7.2665   -18.3144 C.3        6 DT      0.0000
    168 C4'       -4.5208    -6.7141   -17.5267 C.3        6 DT      0.0000
    169 O4'       -4.5796    -5.3185   -17.3347 O.3        6 DT      0.0000
    170 C3'       -4.4413    -7.3126   -16.1101 C.3        6 DT      0.0000
    171 O3'       -3.4962    -8.3665   -16.1085 O.3        6 DT      0.0000
    172 C2'       -4.0854    -6.1298   -15.2129 C.3        6 DT      0.0000
    173 C1'       -3.6615    -5.0954   -16.1775 C.3        6 DT      0.0000
    174 N1        -3.7546    -3.6845   -15.8377 N.am       6 DT      0.0000
    175 C2        -2.5563    -2.9909   -15.6998 C.2        6 DT      0.0000
    176 O2        -1.4924    -3.5903   -15.7878 O.2        6 DT      0.0000
    177 N3        -2.6117    -1.6537   -15.4458 N.am       6 DT      0.0000
    178 C4        -3.7899    -0.9739   -15.3257 C.2        6 DT      0.0000
    179 O4        -3.7583     0.2722   -15.0705 O.2        6 DT      0.0000
    180 C5        -5.0114    -1.7050   -15.4972 C.2        6 DT      0.0000
    181 C7        -6.3363    -0.9996   -15.4097 C.3        6 DT      0.0000
    182 C6        -4.9511    -3.0232   -15.7530 C.2        6 DT      0.0000
    183 H5'       -5.4881    -8.2960   -18.6161 H          6 DT      0.0000
    184 H5''      -5.8743    -6.6459   -19.1895 H          6 DT      0.0000
    185 H4'       -3.5981    -6.9525   -18.0558 H          6 DT      0.0000
    186 H3'       -5.4189    -7.7019   -15.8258 H          6 DT      0.0000
    187 H2'       -4.9513    -5.7990   -14.6395 H          6 DT      0.0000
    188 H2''      -3.2630    -6.3902   -14.5465 H          6 DT      0.0000
    189 H1'       -2.6413    -5.3113   -16.4948 H          6 DT      0.0000
    190 H3        -1.7459    -1.1442   -15.3421 H          6 DT      0.0000
    191 H6        -5.8688    -3.5747   -15.8952 H          6 DT      0.0000
    192 H71       -6.1727     0.0568   -15.1967 H          6 DT      0.0000
    193 H72       -6.8650    -1.1012   -16.3575 H          6 DT      0.0000
    194 H73       -6.9321    -1.4431   -14.6119 H          6 DT      0.0000
    195 P         -3.2028    -9.4148   -15.0018 P.3        7 DT      0.0000
    196 OP1       -2.5369   -10.6743   -15.6139 O.co2      7 DT      0.0000
    197 OP2       -4.5101    -9.7330   -14.3719 O.co2      7 DT      0.0000
    198 O5'       -2.0390    -8.7522   -14.1195 O.3        7 DT      0.0000
    199 C5'       -0.7742    -8.6858   -14.8313 C.3        7 DT      0.0000
    200 C4'        0.1025    -7.6897   -14.1551 C.3        7 DT      0.0000
    201 O4'       -0.4105    -6.3635   -14.1784 O.3        7 DT      0.0000
    202 C3'        0.4192    -8.0158   -12.6885 C.3        7 DT      0.0000
    203 O3'        1.7919    -7.7962   -12.4244 O.3        7 DT      0.0000
    204 C2'       -0.4319    -6.9541   -11.9522 C.3        7 DT      0.0000
    205 C1'       -0.1111    -5.7810   -12.8557 C.3        7 DT      0.0000
    206 N1        -0.9626    -4.6441   -12.5580 N.am       7 DT      0.0000
    207 C2        -0.3881    -3.3845   -12.5032 C.2        7 DT      0.0000
    208 O2         0.8242    -3.2736   -12.6916 O.2        7 DT      0.0000
    209 N3        -1.1974    -2.3161   -12.2373 N.am       7 DT      0.0000
    210 C4        -2.5357    -2.4533   -12.0303 C.2        7 DT      0.0000
    211 O4        -3.2241    -1.4167   -11.8070 O.2        7 DT      0.0000
    212 C5        -3.1166    -3.7533   -12.0953 C.2        7 DT      0.0000
    213 C7        -4.5845    -3.9855   -11.8854 C.3        7 DT      0.0000
    214 C6        -2.3071    -4.7915   -12.3565 C.2        7 DT      0.0000
    215 H5'       -0.2946    -9.6646   -14.8188 H          7 DT      0.0000
    216 H5''      -0.9503    -8.3779   -15.8620 H          7 DT      0.0000
    217 H4'        1.0502    -7.6775   -14.6936 H          7 DT      0.0000
    218 H3'        0.1152    -9.0292   -12.4260 H          7 DT      0.0000
    219 H2'       -1.4937    -7.2002   -11.9534 H          7 DT      0.0000
    220 H2''      -0.0657    -6.7857   -10.9394 H          7 DT      0.0000
    221 H1'        0.9415    -5.5085   -12.7801 H          7 DT      0.0000
    222 H3        -0.7887    -1.3935   -12.1929 H          7 DT      0.0000
    223 H6        -2.7342    -5.7820   -12.4095 H          7 DT      0.0000
    224 H71       -5.0785    -3.0344   -11.6865 H          7 DT      0.0000
    225 H72       -5.0124    -4.4366   -12.7807 H          7 DT      0.0000
    226 H73       -4.7289    -4.6544   -11.0370 H          7 DT      0.0000
    227 P          2.9773    -8.6258   -11.8165 P.3        8 DC      0.0000
    228 OP1        3.9762    -9.0282   -12.8844 O.co2      8 DC      0.0000
    229 OP2        2.3409    -9.7342   -11.0815 O.co2      8 DC      0.0000
    230 O5'        3.6560    -7.3941   -10.9905 O.3        8 DC      0.0000
    231 C5'        3.8232    -6.3442   -12.0127 C.3        8 DC      0.0000
    232 C4'        4.3817    -5.1360   -11.3162 C.3        8 DC      0.0000
    233 O4'        3.4141    -4.1635   -11.0693 O.3        8 DC      0.0000
    234 C3'        5.1383    -5.4257   -10.0248 C.3        8 DC      0.0000
    235 O3'        6.4628    -4.9156   -10.1044 O.3        8 DC      0.0000
    236 C2'        4.1954    -4.8319    -8.9760 C.3        8 DC      0.0000
    237 C1'        3.5066    -3.7259    -9.6724 C.3        8 DC      0.0000
    238 N1         2.0958    -3.5034    -9.3403 N.am       8 DC      0.0000
    239 C2         1.7319    -2.1831    -9.0845 C.2        8 DC      0.0000
    240 O2         2.5688    -1.2751    -9.0800 O.2        8 DC      0.0000
    241 N3         0.4099    -1.9331    -8.8107 N.2        8 DC      0.0000
    242 C4        -0.5204    -2.9305    -8.8206 C.2        8 DC      0.0000
    243 N4        -1.7738    -2.5882    -8.5437 N.pl3      8 DC      0.0000
    244 C5        -0.1395    -4.2617    -9.0986 C.2        8 DC      0.0000
    245 C6         1.1630    -4.4913    -9.3634 C.2        8 DC      0.0000
    246 H5'        4.5128    -6.6819   -12.7864 H          8 DC      0.0000
    247 H5''       2.8577    -6.1024   -12.4569 H          8 DC      0.0000
    248 H4'        5.1012    -4.6890   -12.0022 H          8 DC      0.0000
    249 H3'        5.1866    -6.5051    -9.8815 H          8 DC      0.0000
    250 H2'        3.4775    -5.5793    -8.6381 H          8 DC      0.0000
    251 H2''       4.7659    -4.4477    -8.1305 H          8 DC      0.0000
    252 H1'        4.0762    -2.8001    -9.5915 H          8 DC      0.0000
    253 H5        -0.8624    -5.0640    -9.0992 H          8 DC      0.0000
    254 H6         1.4760    -5.4969    -9.6024 H          8 DC      0.0000
    255 H41       -2.0020    -1.6247    -8.3445 H          8 DC      0.0000
    256 H42       -2.4986    -3.2916    -8.5324 H          8 DC      0.0000
    257 P          7.7106    -5.3280    -9.1524 P.3        9 DA      0.0000
    258 OP1        8.9773    -5.0719    -9.9461 O.co2      9 DA      0.0000
    259 OP2        7.5621    -6.7564    -8.8069 O.co2      9 DA      0.0000
    260 O5'        7.5683    -4.3252    -7.8554 O.3        9 DA      0.0000
    261 C5'        7.4647    -2.8986    -8.1506 C.3        9 DA      0.0000
    262 C4'        7.2410    -2.1208    -6.8953 C.3        9 DA      0.0000
    263 O4'        5.8844    -1.7360    -6.6532 O.3        9 DA      0.0000
    264 C3'        7.6106    -2.8452    -5.5901 C.3        9 DA      0.0000
    265 O3'        7.7818    -1.8689    -4.5602 O.3        9 DA      0.0000
    266 C2'        6.3130    -3.6497    -5.3755 C.3        9 DA      0.0000
    267 C1'        5.3467    -2.4745    -5.5588 C.3        9 DA      0.0000
    268 N9         3.9884    -2.9820    -5.6531 N.ar       9 DA      0.0000
    269 C8         3.5220    -4.2622    -5.7689 C.ar       9 DA      0.0000
    270 N7         2.2062    -4.3771    -5.7875 N.ar       9 DA      0.0000
    271 C5         1.7726    -3.0633    -5.6800 C.ar       9 DA      0.0000
    272 C6         0.4769    -2.4912    -5.6455 C.ar       9 DA      0.0000
    273 N6        -0.6478    -3.1786    -5.7307 N.pl3      9 DA      0.0000
    274 N1         0.4225    -1.1333    -5.5129 N.ar       9 DA      0.0000
    275 C2         1.5641    -0.3811    -5.4327 C.ar       9 DA      0.0000
    276 N3         2.8117    -0.8438    -5.4626 N.ar       9 DA      0.0000
    277 C4         2.8467    -2.1934    -5.5856 C.ar       9 DA      0.0000
    278 H5'        8.3880    -2.5616    -8.6218 H          9 DA      0.0000
    279 H5''       6.6304    -2.7311    -8.8319 H          9 DA      0.0000
    280 H4'        7.8404    -1.2122    -6.9542 H          9 DA      0.0000
    281 H3'        8.4840    -3.4873    -5.7038 H          9 DA      0.0000
    282 H2'        6.1735    -4.4275    -6.1263 H          9 DA      0.0000
    283 H2''       6.2587    -4.0564    -4.3656 H          9 DA      0.0000
    284 H1'        5.4090    -1.8479    -4.6691 H          9 DA      0.0000
    285 H8         4.1802    -5.1156    -5.8399 H          9 DA      0.0000
    286 H2         1.4405     0.6874    -5.3363 H          9 DA      0.0000
    287 H61       -1.6184    -2.9647    -5.5507 H          9 DA      0.0000
    288 H62       -0.5059    -4.1277    -6.0455 H          9 DA      0.0000
    289 P          9.1396    -1.0341    -4.4197 P.3       10 DC      0.0000
    290 OP1        9.9587    -1.0307    -5.6648 O.co2     10 DC      0.0000
    291 OP2        9.8221    -1.7285    -3.2768 O.co2     10 DC      0.0000
    292 O5'        8.6326     0.4415    -4.1366 O.3       10 DC      0.0000
    293 C5'        8.2120     1.3194    -5.2243 C.3       10 DC      0.0000
    294 C4'        7.1832     2.2106    -4.5193 C.3       10 DC      0.0000
    295 O4'        6.0716     1.4033    -4.2073 O.3       10 DC      0.0000
    296 C3'        7.6849     2.8126    -3.2094 C.3       10 DC      0.0000
    297 O3'        7.5013     4.2449    -3.1415 O.3       10 DC      0.0000
    298 C2'        6.9072     2.0486    -2.1272 C.3       10 DC      0.0000
    299 C1'        5.6318     1.7461    -2.8034 C.3       10 DC      0.0000
    300 N1         4.8420     0.5693    -2.4506 N.am      10 DC      0.0000
    301 C2         3.4608     0.7533    -2.4774 C.2       10 DC      0.0000
    302 O2         2.9427     1.8434    -2.6844 O.2       10 DC      0.0000
    303 N3         2.6809    -0.3318    -2.2243 N.2       10 DC      0.0000
    304 C4         3.1989    -1.5619    -1.9910 C.2       10 DC      0.0000
    305 N4         2.3330    -2.5469    -1.7600 N.pl3     10 DC      0.0000
    306 C5         4.6098    -1.7398    -1.9844 C.2       10 DC      0.0000
    307 C6         5.3731    -0.6646    -2.2338 C.2       10 DC      0.0000
    308 H5'        9.0475     1.9042    -5.6091 H         10 DC      0.0000
    309 H5''       7.7423     0.7458    -6.0233 H         10 DC      0.0000
    310 H4'        6.8739     3.0106    -5.1920 H         10 DC      0.0000
    311 H3'        8.7465     2.5889    -3.1035 H         10 DC      0.0000
    312 H2'        7.4271     1.1345    -1.8402 H         10 DC      0.0000
    313 H2''       6.7385     2.6827    -1.2569 H         10 DC      0.0000
    314 H1'        4.9969     2.6320    -2.8166 H         10 DC      0.0000
    315 H5         5.0511    -2.7053    -1.7859 H         10 DC      0.0000
    316 H6         6.4462    -0.7826    -2.2636 H         10 DC      0.0000
    317 H41        1.3405    -2.3597    -1.7711 H         10 DC      0.0000
    318 H42        2.6687    -3.4811    -1.5739 H         10 DC      0.0000
    319 P         -7.9599    -2.9473    -0.1820 P.3       10 DG      0.0000
    320 OP1       -9.3278    -3.5251    -0.0032 O.co2     10 DG      0.0000
    321 OP2       -7.1533    -3.6487    -1.2668 O.co2     10 DG      0.0000
    322 O5'       -8.0783    -1.3187    -0.3892 O.3       10 DG      0.0000
    323 C5'       -7.6820    -0.4286     0.7065 C.3       10 DG      0.0000
    324 C4'       -6.9927     0.7771     0.0723 C.3       10 DG      0.0000
    325 O4'       -5.6058     0.5989    -0.0236 O.3       10 DG      0.0000
    326 C3'       -7.4799     1.1159    -1.3341 C.3       10 DG      0.0000
    327 O3'       -7.5954     2.5327    -1.6011 O.3       10 DG      0.0000
    328 C2'       -6.4213     0.4564    -2.2364 C.3       10 DG      0.0000
    329 C1'       -5.1646     0.6831    -1.4125 C.3       10 DG      0.0000
    330 N9        -4.1568    -0.3557    -1.6859 N.ar      10 DG      0.0000
    331 C8        -4.3566    -1.7067    -1.8425 C.ar      10 DG      0.0000
    332 N7        -3.2607    -2.3837    -2.0609 N.ar      10 DG      0.0000
    333 C5        -2.2645    -1.4147    -2.0361 C.ar      10 DG      0.0000
    334 C6        -0.8562    -1.5136    -2.1926 C.2       10 DG      0.0000
    335 O6        -0.2044    -2.5490    -2.3894 O.2       10 DG      0.0000
    336 N1        -0.1925    -0.3147    -2.1057 N.am      10 DG      0.0000
    337 C2        -0.8303     0.8609    -1.8850 C.2       10 DG      0.0000
    338 N2        -0.0560     1.9406    -1.8217 N.pl3     10 DG      0.0000
    339 N3        -2.1514     1.0088    -1.7273 N.2       10 DG      0.0000
    340 C4        -2.8021    -0.1679    -1.8106 C.ar      10 DG      0.0000
    341 H5'       -8.5615    -0.1068     1.2643 H         10 DG      0.0000
    342 H5''      -6.9894    -0.9446     1.3715 H         10 DG      0.0000
    343 H4'       -7.1768     1.6425     0.7090 H         10 DG      0.0000
    344 H3'       -8.4449     0.6385    -1.5046 H         10 DG      0.0000
    345 H2'       -6.6212    -0.6056    -2.3790 H         10 DG      0.0000
    346 H2''      -6.3544     0.9705    -3.1951 H         10 DG      0.0000
    347 H1'       -4.7526     1.6712    -1.6178 H         10 DG      0.0000
    348 H8        -5.3321    -2.1672    -1.7898 H         10 DG      0.0000
    349 H1         0.8120    -0.3085    -2.2105 H         10 DG      0.0000
    350 H21        0.9435     1.8527    -1.9367 H         10 DG      0.0000
    351 H22       -0.4676     2.8484    -1.6585 H         10 DG      0.0000
    352 P         -7.3639     2.9724    -3.1246 P.3        9 DT      0.0000
    353 OP1       -8.1081     4.2208    -3.5155 O.co2      9 DT      0.0000
    354 OP2       -7.9057     1.7822    -3.8251 O.co2      9 DT      0.0000
    355 O5'       -5.7847     3.2100    -3.2555 O.3        9 DT      0.0000
    356 C5'       -5.2974     4.5638    -2.9878 C.3        9 DT      0.0000
    357 C4'       -4.0025     4.7644    -3.7449 C.3        9 DT      0.0000
    358 O4'       -3.1934     3.6021    -3.7722 O.3        9 DT      0.0000
    359 C3'       -4.2165     5.1531    -5.1996 C.3        9 DT      0.0000
    360 O3'       -3.2687     6.1236    -5.6947 O.3        9 DT      0.0000
    361 C2'       -4.0975     3.8297    -5.9224 C.3        9 DT      0.0000
    362 C1'       -2.9403     3.2257    -5.1443 C.3        9 DT      0.0000
    363 N1        -3.0442     1.7658    -5.2956 N.am       9 DT      0.0000
    364 C2        -1.8557     1.0507    -5.1889 C.2        9 DT      0.0000
    365 O2        -0.7939     1.6344    -4.9991 O.2        9 DT      0.0000
    366 N3        -1.9323    -0.3087    -5.3090 N.am       9 DT      0.0000
    367 C4        -3.1160    -0.9477    -5.5266 C.2        9 DT      0.0000
    368 O4        -3.0877    -2.2191    -5.6242 O.2        9 DT      0.0000
    369 C5        -4.3163    -0.1886    -5.6330 C.2        9 DT      0.0000
    370 C7        -5.6281    -0.8831    -5.8619 C.3        9 DT      0.0000
    371 C6        -4.2356     1.1389    -5.5112 C.2        9 DT      0.0000
    372 H5'       -6.0354     5.2932    -3.3215 H          9 DT      0.0000
    373 H5''      -5.1197     4.6849    -1.9192 H          9 DT      0.0000
    374 H4'       -3.4409     5.5609    -3.2569 H          9 DT      0.0000
    375 H3'       -5.2274     5.5414    -5.3236 H          9 DT      0.0000
    376 H2'       -5.0050     3.2329    -5.8309 H          9 DT      0.0000
    377 H2''      -3.8305     3.9779    -6.9688 H          9 DT      0.0000
    378 H1'       -1.9786     3.6005    -5.4950 H          9 DT      0.0000
    379 H3        -1.0866    -0.8558    -5.2343 H          9 DT      0.0000
    380 H6        -5.1362     1.7304    -5.5854 H          9 DT      0.0000
    381 H71       -5.4634    -1.9583    -5.9306 H          9 DT      0.0000
    382 H72       -6.3010    -0.6712    -5.0310 H          9 DT      0.0000
    383 H73       -6.0725    -0.5235    -6.7901 H          9 DT      0.0000
    384 P         -4.1389     7.3032    -6.4731 P.3        8 DG      0.0000
    385 OP1       -4.4667     8.4718    -5.6018 O.co2      8 DG      0.0000
    386 OP2       -5.3069     6.4820    -6.8786 O.co2      8 DG      0.0000
    387 O5'       -3.0668     7.7901    -7.5539 O.3        8 DG      0.0000
    388 C5'       -1.9998     8.6761    -7.1304 C.3        8 DG      0.0000
    389 C4'       -0.7184     7.9842    -7.5781 C.3        8 DG      0.0000
    390 O4'       -0.8067     6.5996    -7.3074 O.3        8 DG      0.0000
    391 C3'       -0.4039     8.1413    -9.0659 C.3        8 DG      0.0000
    392 O3'        0.8796     8.7028    -9.2744 O.3        8 DG      0.0000
    393 C2'       -0.6115     6.7521    -9.6426 C.3        8 DG      0.0000
    394 C1'       -0.3461     5.8554    -8.4564 C.3        8 DG      0.0000
    395 N9        -1.0797     4.5929    -8.5800 N.ar       8 DG      0.0000
    396 C8        -2.4235     4.4049    -8.7389 C.ar       8 DG      0.0000
    397 N7        -2.7743     3.1443    -8.8169 N.ar       8 DG      0.0000
    398 C5        -1.5755     2.4506    -8.6794 C.ar       8 DG      0.0000
    399 C6        -1.2807     1.0617    -8.6699 C.2        8 DG      0.0000
    400 O6        -2.0781     0.1346    -8.7690 O.2        8 DG      0.0000
    401 N1         0.0438     0.7629    -8.5210 N.am       8 DG      0.0000
    402 C2         1.0020     1.7385    -8.3881 C.2        8 DG      0.0000
    403 N2         2.2566     1.3080    -8.2524 N.pl3      8 DG      0.0000
    404 N3         0.7928     3.0589    -8.3838 N.2        8 DG      0.0000
    405 C4        -0.5240     3.3397    -8.5345 C.ar       8 DG      0.0000
    406 H5'       -2.0972     9.6505    -7.6092 H          8 DG      0.0000
    407 H5''      -2.0094     8.7864    -6.0461 H          8 DG      0.0000
    408 H4'        0.1129     8.3948    -7.0051 H          8 DG      0.0000
    409 H3'       -1.1454     8.8089    -9.5045 H          8 DG      0.0000
    410 H2'       -1.6304     6.6273   -10.0089 H          8 DG      0.0000
    411 H2''       0.1077     6.5569   -10.4381 H          8 DG      0.0000
    412 H1'        0.7225     5.6588    -8.3694 H          8 DG      0.0000
    413 H8        -3.1309     5.2190    -8.7950 H          8 DG      0.0000
    414 H1         0.3278    -0.2063    -8.5081 H          8 DG      0.0000
    415 H21        2.4532     0.3173    -8.2515 H          8 DG      0.0000
    416 H22        3.0103     1.9725    -8.1507 H          8 DG      0.0000
    417 P          2.1431     8.3151   -10.1407 P.3        7 DA      0.0000
    418 OP1        3.4298     8.6100    -9.3593 O.co2      7 DA      0.0000
    419 OP2        2.0635     9.1615   -11.3334 O.co2      7 DA      0.0000
    420 O5'        2.0954     6.6961   -10.3155 O.3        7 DA      0.0000
    421 C5'        2.7022     6.0063    -9.1590 C.3        7 DA      0.0000
    422 C4'        3.8961     5.2498    -9.6868 C.3        7 DA      0.0000
    423 O4'        3.6162     3.8910    -9.9091 O.3        7 DA      0.0000
    424 C3'        4.3964     5.7866   -11.0273 C.3        7 DA      0.0000
    425 O3'        5.8013     5.8284   -11.1025 O.3        7 DA      0.0000
    426 C2'        3.6619     4.9078   -12.0239 C.3        7 DA      0.0000
    427 C1'        3.3226     3.6348   -11.3001 C.3        7 DA      0.0000
    428 N9         1.9223     3.2377   -11.5256 N.ar       7 DA      0.0000
    429 C8         0.8147     4.0364   -11.7119 C.ar       7 DA      0.0000
    430 N7        -0.3029     3.3754   -11.9078 N.ar       7 DA      0.0000
    431 C5         0.0941     2.0469   -11.8210 C.ar       7 DA      0.0000
    432 C6        -0.6396     0.8422   -11.9266 C.ar       7 DA      0.0000
    433 N6        -1.9427     0.7910   -12.1391 N.pl3      7 DA      0.0000
    434 N1         0.0779    -0.3085   -11.8029 N.ar       7 DA      0.0000
    435 C2         1.4249    -0.2858   -11.5784 C.ar       7 DA      0.0000
    436 N3         2.1719     0.8102   -11.4625 N.ar       7 DA      0.0000
    437 C4         1.4479     1.9474   -11.5986 C.ar       7 DA      0.0000
    438 H5'        3.0183     6.7333    -8.4110 H          7 DA      0.0000
    439 H5''       1.9850     5.3112    -8.7224 H          7 DA      0.0000
    440 H4'        4.7042     5.3239    -8.9592 H          7 DA      0.0000
    441 H3'        4.0242     6.8048   -11.1404 H          7 DA      0.0000
    442 H2'        4.3010     4.6949   -12.8808 H          7 DA      0.0000
    443 H2''       2.7488     5.4028   -12.3544 H          7 DA      0.0000
    444 H1'        3.9768     2.8400   -11.6583 H          7 DA      0.0000
    445 H8         0.8620     5.1153   -11.6980 H          7 DA      0.0000
    446 H2         1.9267    -1.2378   -11.4871 H          7 DA      0.0000
    447 H61       -2.4931     0.0050   -11.8237 H          7 DA      0.0000
    448 H62       -2.3965     1.5512   -12.6253 H          7 DA      0.0000
    449 P          6.7954     5.5040   -12.2871 P.3        6 DA      0.0000
    450 OP1        8.2615     5.4454   -11.7672 O.co2      6 DA      0.0000
    451 OP2        6.6569     6.6649   -13.2208 O.co2      6 DA      0.0000
    452 O5'        6.4692     4.0470   -12.7898 O.3        6 DA      0.0000
    453 C5'        7.2639     2.9326   -12.3340 C.3        6 DA      0.0000
    454 C4'        6.7388     1.6992   -13.0359 C.3        6 DA      0.0000
    455 O4'        5.3456     1.6550   -13.1567 O.3        6 DA      0.0000
    456 C3'        7.3035     1.5124   -14.4434 C.3        6 DA      0.0000
    457 O3'        8.1321     0.3350   -14.4749 O.3        6 DA      0.0000
    458 C2'        6.0669     1.5557   -15.3430 C.3        6 DA      0.0000
    459 C1'        4.9723     1.0639   -14.4452 C.3        6 DA      0.0000
    460 N9         3.6240     1.5344   -14.7448 N.ar       6 DA      0.0000
    461 C8         3.1720     2.8232   -14.9395 C.ar       6 DA      0.0000
    462 N7         1.8764     2.9055   -15.1450 N.ar       6 DA      0.0000
    463 C5         1.4388     1.5975   -15.0704 C.ar       6 DA      0.0000
    464 C6         0.1548     1.0232   -15.2039 C.ar       6 DA      0.0000
    465 N6        -0.9484     1.7244   -15.4471 N.pl3      6 DA      0.0000
    466 N1         0.1061    -0.3397   -15.0551 N.ar       6 DA      0.0000
    467 C2         1.2057    -1.0755   -14.8026 C.ar       6 DA      0.0000
    468 N3         2.4481    -0.6031   -14.6637 N.ar       6 DA      0.0000
    469 C4         2.4929     0.7399   -14.8109 C.ar       6 DA      0.0000
    470 H5'        8.3117     3.0909   -12.5891 H          6 DA      0.0000
    471 H5''       7.1582     2.8185   -11.2552 H          6 DA      0.0000
    472 H4'        7.0422     0.8345   -12.4458 H          6 DA      0.0000
    473 H3'        7.9270     2.3750   -14.6784 H          6 DA      0.0000
    474 H2'        5.8665     2.5718   -15.6829 H          6 DA      0.0000
    475 H2''       6.1913     0.8865   -16.1943 H          6 DA      0.0000
    476 H1'        4.9906    -0.0243   -14.3841 H          6 DA      0.0000
    477 H8         3.8227     3.6851   -14.9246 H          6 DA      0.0000
    478 H2         1.0713    -2.1425   -14.7035 H          6 DA      0.0000
    479 H61       -1.8106     1.2881   -15.1531 H          6 DA      0.0000
    480 H62       -0.9258     2.6296   -15.8944 H          6 DA      0.0000
    481 P          8.8368    -0.0861   -15.8598 P.3        5 DT      0.0000
    482 OP1        9.9297    -1.1086   -15.8017 O.co2      5 DT      0.0000
    483 OP2        9.2433     1.2581   -16.3725 O.co2      5 DT      0.0000
    484 O5'        7.5278    -0.8411   -16.5630 O.3        5 DT      0.0000
    485 C5'        6.8442    -1.6402   -15.5507 C.3        5 DT      0.0000
    486 C4'        6.0491    -2.7066   -16.2336 C.3        5 DT      0.0000
    487 O4'        4.7055    -2.3721   -16.4140 O.3        5 DT      0.0000
    488 C3'        6.5924    -3.1127   -17.5949 C.3        5 DT      0.0000
    489 O3'        6.4532    -4.5135   -17.8622 O.3        5 DT      0.0000
    490 C2'        5.7516    -2.1913   -18.4882 C.3        5 DT      0.0000
    491 C1'        4.3848    -2.3078   -17.8482 C.3        5 DT      0.0000
    492 N1         3.5810    -1.0926   -18.0782 N.am       5 DT      0.0000
    493 C2         2.2111    -1.2460   -18.1998 C.2        5 DT      0.0000
    494 O2         1.6893    -2.3615   -18.1630 O.2        5 DT      0.0000
    495 N3         1.4513    -0.1202   -18.3672 N.am       5 DT      0.0000
    496 C4         2.0055     1.1209   -18.4157 C.2        5 DT      0.0000
    497 O4         1.2288     2.1048   -18.6012 O.2        5 DT      0.0000
    498 C5         3.4141     1.2584   -18.2673 C.2        5 DT      0.0000
    499 C7         4.0644     2.6204   -18.3194 C.3        5 DT      0.0000
    500 C6         4.1415     0.1498   -18.0943 C.2        5 DT      0.0000
    501 H5'        7.5789    -2.0986   -14.8886 H          5 DT      0.0000
    502 H5''       6.1774    -1.0022   -14.9706 H          5 DT      0.0000
    503 H4'        6.0795    -3.5906   -15.5966 H          5 DT      0.0000
    504 H3'        7.6428    -2.8306   -17.6669 H          5 DT      0.0000
    505 H2'        6.1184    -1.1653   -18.4576 H          5 DT      0.0000
    506 H2''       5.7303    -2.5625   -19.5128 H          5 DT      0.0000
    507 H1'        3.8611    -3.2037   -18.1821 H          5 DT      0.0000
    508 H3         0.4497    -0.2136   -18.4573 H          5 DT      0.0000
    509 H6         5.2095     0.2420   -17.9629 H          5 DT      0.0000
    510 H71        4.4437     2.8043   -19.3246 H          5 DT      0.0000
    511 H72        4.8893     2.6563   -17.6078 H          5 DT      0.0000
    512 H73        3.3299     3.3838   -18.0629 H          5 DT      0.0000
    513 P          6.9209    -4.9991   -19.3521 P.3        4 DT      0.0000
    514 OP1        8.1443    -5.9056   -19.2041 O.co2      4 DT      0.0000
    515 OP2        7.3207    -3.7158   -20.0219 O.co2      4 DT      0.0000
    516 O5'        5.7219    -5.7339   -20.0041 O.3        4 DT      0.0000
    517 C5'        4.7426    -6.4512   -19.2527 C.3        4 DT      0.0000
    518 C4'        3.4490    -6.4014   -20.0007 C.3        4 DT      0.0000
    519 O4'        2.7563    -5.1837   -20.0577 O.3        4 DT      0.0000
    520 C3'        3.4547    -6.8860   -21.4668 C.3        4 DT      0.0000
    521 O3'        2.1600    -7.4860   -21.5705 O.3        4 DT      0.0000
    522 C2'        3.5371    -5.5577   -22.2305 C.3        4 DT      0.0000
    523 C1'        2.4586    -4.8296   -21.4548 C.3        4 DT      0.0000
    524 N1         2.4705    -3.3678   -21.5609 N.am       4 DT      0.0000
    525 C2         1.2101    -2.7553   -21.5616 C.2        4 DT      0.0000
    526 O2         0.1767    -3.4260   -21.5185 O.2        4 DT      0.0000
    527 N3         1.1827    -1.3913   -21.6150 N.am       4 DT      0.0000
    528 C4         2.3134    -0.6322   -21.6748 C.2        4 DT      0.0000
    529 O4         2.1824     0.6273   -21.7372 O.2        4 DT      0.0000
    530 C5         3.5791    -1.2794   -21.6665 C.2        4 DT      0.0000
    531 C7         4.8436    -0.4483   -21.7280 C.3        4 DT      0.0000
    532 C6         3.6012    -2.6138   -21.6000 C.2        4 DT      0.0000
    533 H5'        5.0580    -7.4874   -19.1305 H          4 DT      0.0000
    534 H5''       4.6188    -5.9874   -18.2741 H          4 DT      0.0000
    535 H4'        2.7848    -7.0862   -19.4735 H          4 DT      0.0000
    536 H3'        4.2713    -7.5708   -21.6955 H          4 DT      0.0000
    537 H2'        3.2886    -5.6680   -23.2861 H          4 DT      0.0000
    538 H2''       4.5097    -5.0836   -22.0989 H          4 DT      0.0000
    539 H1'        1.4774    -5.2138   -21.7338 H          4 DT      0.0000
    540 H3         0.2868    -0.9250   -21.6101 H          4 DT      0.0000
    541 H6         4.5578    -3.1145   -21.5763 H          4 DT      0.0000
    542 H71        4.5822     0.6088   -21.7768 H          4 DT      0.0000
    543 H72        5.4154    -0.7222   -22.6145 H          4 DT      0.0000
    544 H73        5.4436    -0.6334   -20.8370 H          4 DT      0.0000
    545 P          1.6457    -8.3983   -22.7167 P.3        3 DC      0.0000
    546 OP1        1.0000    -9.6442   -22.1076 O.co2      3 DC      0.0000
    547 OP2        2.8594    -8.7923   -23.4986 O.co2      3 DC      0.0000
    548 O5'        0.5859    -7.4062   -23.4561 O.3        3 DC      0.0000
    549 C5'       -0.6700    -7.1938   -22.7316 C.3        3 DC      0.0000
    550 C4'       -1.7384    -7.0359   -23.7822 C.3        3 DC      0.0000
    551 O4'       -2.0499    -5.6842   -24.0275 O.3        3 DC      0.0000
    552 C3'       -1.4062    -7.6423   -25.1466 C.3        3 DC      0.0000
    553 O3'       -2.5310    -8.1663   -25.8559 O.3        3 DC      0.0000
    554 C2'       -0.7311    -6.4467   -25.8327 C.3        3 DC      0.0000
    555 C1'       -1.5255    -5.2621   -25.2861 C.3        3 DC      0.0000
    556 N1        -0.6024    -4.1089   -25.1683 N.am       3 DC      0.0000
    557 C2        -1.1752    -2.8380   -25.1511 C.2        3 DC      0.0000
    558 O2        -2.4028    -2.6878   -25.2198 O.2        3 DC      0.0000
    559 N3        -0.3259    -1.7695   -25.0478 N.2        3 DC      0.0000
    560 C4         1.0223    -1.9226   -24.9771 C.2        3 DC      0.0000
    561 N4         1.8092    -0.8493   -24.8752 N.pl3      3 DC      0.0000
    562 C5         1.5810    -3.2309   -25.0022 C.2        3 DC      0.0000
    563 C6         0.7460    -4.2799   -25.0958 C.2        3 DC      0.0000
    564 H5'       -0.8891    -8.0515   -22.0957 H          3 DC      0.0000
    565 H5''      -0.6039    -6.2887   -22.1277 H          3 DC      0.0000
    566 H4'       -2.6411    -7.5230   -23.4134 H          3 DC      0.0000
    567 H3'       -0.6709    -8.4355   -25.0124 H          3 DC      0.0000
    568 H2'       -0.8191    -6.5135   -26.9171 H          3 DC      0.0000
    569 H2''       0.3155    -6.3757   -25.5368 H          3 DC      0.0000
    570 H1'       -2.3418    -5.0168   -25.9655 H          3 DC      0.0000
    571 H5         2.6496    -3.3774   -24.9475 H          3 DC      0.0000
    572 H6         1.1536    -5.2800   -25.1139 H          3 DC      0.0000
    573 H41        1.4024     0.0750   -24.8545 H          3 DC      0.0000
    574 H42        2.8114    -0.9613   -24.8188 H          3 DC      0.0000
    575 P         -2.7569    -8.1056   -27.4879 P.3        2 DA      0.0000
    576 OP1       -3.7081    -9.2164   -27.8774 O.co2      2 DA      0.0000
    577 OP2       -1.3876    -8.2272   -28.0579 O.co2      2 DA      0.0000
    578 O5'       -3.5222    -6.7144   -27.6534 O.3        2 DA      0.0000
    579 C5'       -4.9255    -6.6373   -27.1880 C.3        2 DA      0.0000
    580 C4'       -5.4824    -5.5290   -28.0653 C.3        2 DA      0.0000
    581 O4'       -4.7874    -4.3044   -27.7979 O.3        2 DA      0.0000
    582 C3'       -5.2703    -5.7751   -29.5697 C.3        2 DA      0.0000
    583 O3'       -6.1079    -4.9453   -30.3587 O.3        2 DA      0.0000
    584 C2'       -3.8492    -5.2126   -29.7571 C.3        2 DA      0.0000
    585 C1'       -4.1322    -3.8849   -29.0025 C.3        2 DA      0.0000
    586 N9        -2.8210    -3.2611   -28.8571 N.ar       2 DA      0.0000
    587 C8        -1.6090    -3.9105   -28.7842 C.ar       2 DA      0.0000
    588 N7        -0.5895    -3.0968   -28.6696 N.ar       2 DA      0.0000
    589 C5        -1.1831    -1.8219   -28.6759 C.ar       2 DA      0.0000
    590 C6        -0.6077    -0.5254   -28.5760 C.ar       2 DA      0.0000
    591 N6         0.7039    -0.3019   -28.4532 N.pl3      2 DA      0.0000
    592 N1        -1.5097     0.4950   -28.6112 N.ar       2 DA      0.0000
    593 C2        -2.8409     0.2687   -28.7300 C.ar       2 DA      0.0000
    594 N3        -3.4474    -0.9183   -28.8215 N.ar       2 DA      0.0000
    595 C4        -2.5477    -1.9171   -28.7940 C.ar       2 DA      0.0000
    596 H5'       -5.4512    -7.5774   -27.3547 H          2 DA      0.0000
    597 H5''      -4.9674    -6.3538   -26.1363 H          2 DA      0.0000
    598 H4'       -6.5453    -5.3993   -27.8613 H          2 DA      0.0000
    599 H3'       -5.3457    -6.8285   -29.8393 H          2 DA      0.0000
    600 H2'       -3.0838    -5.8211   -29.2755 H          2 DA      0.0000
    601 H2''      -3.6212    -5.0373   -30.8085 H          2 DA      0.0000
    602 H1'       -4.7922    -3.2476   -29.5909 H          2 DA      0.0000
    603 H8        -1.5091    -4.9854   -28.8182 H          2 DA      0.0000
    604 H2        -3.4787     1.1399   -28.7532 H          2 DA      0.0000
    605 H61        1.3484    -1.0791   -28.4284 H          2 DA      0.0000
    606 H62        1.0508     0.6442   -28.3850 H          2 DA      0.0000
    607 P         -7.0221    -5.5651   -31.4996 P.3        1 DC      0.0000
    608 OP1       -8.2432    -6.0229   -30.7194 O.co2      1 DC      0.0000
    609 OP2       -6.3606    -6.6553   -32.2252 O.co2      1 DC      0.0000
    610 O5'       -7.2176    -4.2559   -32.4755 O.3        1 DC      0.0000
    611 C5'       -7.6932    -3.0259   -31.8065 C.3        1 DC      0.0000
    612 C4'       -7.0223    -1.8416   -32.4505 C.3        1 DC      0.0000
    613 O4'       -5.8118    -1.4518   -31.8134 O.3        1 DC      0.0000
    614 C3'       -6.6704    -2.0835   -33.9283 C.3        1 DC      0.0000
    615 O3'       -6.7525    -0.9183   -34.7396 O.3        1 DC      0.0000
    616 C2'       -5.1682    -2.4857   -33.7627 C.3        1 DC      0.0000
    617 C1'       -4.8507    -1.2319   -32.8671 C.3        1 DC      0.0000
    618 N1        -3.4310    -1.2337   -32.6292 N.am       1 DC      0.0000
    619 C2        -2.8130    -0.0349   -32.3121 C.2        1 DC      0.0000
    620 O2        -3.3009     1.0922   -32.1716 O.2        1 DC      0.0000
    621 N3        -1.4601    -0.0434   -32.1138 N.2        1 DC      0.0000
    622 C4        -0.7180    -1.1864   -32.2298 C.2        1 DC      0.0000
    623 N4         0.6061    -1.1481   -32.0138 N.pl3      1 DC      0.0000
    624 C5        -1.3662    -2.4088   -32.5595 C.2        1 DC      0.0000
    625 C6        -2.6900    -2.3750   -32.7512 C.2        1 DC      0.0000
    626 H5'       -8.7743    -2.9414   -31.9180 H          1 DC      0.0000
    627 H5''      -7.4359    -3.0618   -30.7479 H          1 DC      0.0000
    628 H4'       -7.7121    -0.9990   -32.4038 H          1 DC      0.0000
    629 H3'       -7.2566    -2.9013   -34.3473 H          1 DC      0.0000
    630 H2'       -5.0279    -3.4349   -33.2456 H          1 DC      0.0000
    631 H2''      -4.6315    -2.4552   -34.7109 H          1 DC      0.0000
    632 H1'       -5.1199    -0.3271   -33.4120 H          1 DC      0.0000
    633 H5        -0.8103    -3.3302   -32.6516 H          1 DC      0.0000
    634 H6        -3.1960    -3.2921   -33.0144 H          1 DC      0.0000
    635 H41        1.0535    -0.2751   -31.7732 H          1 DC      0.0000
    636 H42        1.1552    -1.9922   -32.0917 H          1 DC      0.0000
    637 P          7.5536     6.5822     1.8595 P.3       11 DG      0.0000
    638 OP1        9.0012     6.9078     1.8580 O.co2     11 DG      0.0000
    639 OP2        7.3470     5.4862     2.9152 O.co2     11 DG      0.0000
    640 O5'        6.5435     7.7985     2.0379 O.3       11 DG      0.0000
    641 C5'        5.7570     8.4803     1.0379 C.3       11 DG      0.0000
    642 C4'        4.3294     8.5630     1.5367 C.3       11 DG      0.0000
    643 O4'        3.5560     7.4596     1.1176 O.3       11 DG      0.0000
    644 C3'        4.1072     8.7052     3.0289 C.3       11 DG      0.0000
    645 O3'        3.2788     9.8575     3.3409 O.3       11 DG      0.0000
    646 C2'        3.4859     7.3873     3.4508 C.3       11 DG      0.0000
    647 C1'        2.8052     6.8986     2.1952 C.3       11 DG      0.0000
    648 N9         2.7963     5.4247     2.1661 N.ar      11 DG      0.0000
    649 C8         3.8250     4.5417     2.3950 C.ar      11 DG      0.0000
    650 N7         3.4773     3.2778     2.3053 N.ar      11 DG      0.0000
    651 C5         2.1224     3.3289     1.9883 C.ar      11 DG      0.0000
    652 C6         1.1668     2.3076     1.7624 C.2       11 DG      0.0000
    653 O6         1.3351     1.0880     1.7836 O.2       11 DG      0.0000
    654 N1        -0.0982     2.7457     1.4808 N.am      11 DG      0.0000
    655 C2        -0.4141     3.9997     1.4202 C.2       11 DG      0.0000
    656 N2        -1.6481     4.1350     1.1234 N.pl3     11 DG      0.0000
    657 N3         0.4535     5.0766     1.6289 N.2       11 DG      0.0000
    658 C4         1.6913     4.6394     1.9015 C.ar      11 DG      0.0000
    659 H5'        6.1513     9.4841     0.8792 H         11 DG      0.0000
    660 H5''       5.7876     7.9215     0.1026 H         11 DG      0.0000
    661 H4'        3.8890     9.4451     1.0720 H         11 DG      0.0000
    662 H3'        5.0724     8.8173     3.5229 H         11 DG      0.0000
    663 H2'        4.2511     6.6833     3.7778 H         11 DG      0.0000
    664 H2''       2.7539     7.5480     4.2423 H         11 DG      0.0000
    665 H1'        1.7818     7.2725     2.1632 H         11 DG      0.0000
    666 H8         4.8307     4.8592     2.6281 H         11 DG      0.0000
    667 H1        -0.8193     2.0588     1.3125 H         11 DG      0.0000
    668 H21       -2.2252     3.3188     0.9791 H         11 DG      0.0000
    669 H22       -2.0474     5.0582     1.0330 H         11 DG      0.0000
    670 P          2.6494    10.0936     4.7695 P.3       12 DT      0.0000
    671 OP1        2.6666    11.5107     5.2811 O.co2     12 DT      0.0000
    672 OP2        3.6238     9.3341     5.6881 O.co2     12 DT      0.0000
    673 O5'        1.2694     9.3881     4.7980 O.3       12 DT      0.0000
    674 C5'        0.0099    10.1004     4.6540 C.3       12 DT      0.0000
    675 C4'       -1.0488     9.0191     4.7116 C.3       12 DT      0.0000
    676 O4'       -0.5203     7.7404     4.4364 O.3       12 DT      0.0000
    677 C3'       -1.7731     8.8589     6.0243 C.3       12 DT      0.0000
    678 O3'       -3.1538     9.2023     5.8361 O.3       12 DT      0.0000
    679 C2'       -1.6076     7.3909     6.4165 C.3       12 DT      0.0000
    680 C1'       -1.3988     6.7613     5.0638 C.3       12 DT      0.0000
    681 N1        -0.6546     5.5054     5.1604 N.am      12 DT      0.0000
    682 C2        -1.3503     4.3437     4.9625 C.2       12 DT      0.0000
    683 O2        -2.5558     4.3288     4.7243 O.2       12 DT      0.0000
    684 N3        -0.6452     3.1731     5.0435 N.am      12 DT      0.0000
    685 C4         0.6820     3.1308     5.2994 C.2       12 DT      0.0000
    686 O4         1.1925     1.9810     5.3447 O.2       12 DT      0.0000
    687 C5         1.3939     4.3570     5.4991 C.2       12 DT      0.0000
    688 C7         2.8617     4.3541     5.7790 C.3       12 DT      0.0000
    689 C6         0.6962     5.4971     5.4177 C.2       12 DT      0.0000
    690 H5'       -0.1239    10.8135     5.4675 H         12 DT      0.0000
    691 H5''      -0.0260    10.6132     3.6929 H         12 DT      0.0000
    692 H4'       -1.7930     9.2422     3.9470 H         12 DT      0.0000
    693 H3'       -1.3256     9.5028     6.7814 H         12 DT      0.0000
    694 H2'       -0.7441     7.2437     7.0653 H         12 DT      0.0000
    695 H2''      -2.5148     7.0101     6.8857 H         12 DT      0.0000
    696 H1'       -2.3350     6.6420     4.5184 H         12 DT      0.0000
    697 H3        -1.1381     2.3024     4.9060 H         12 DT      0.0000
    698 H6         1.2092     6.4371     5.5580 H         12 DT      0.0000
    699 H71        3.4053     4.6234     4.8735 H         12 DT      0.0000
    700 H72        3.1673     3.3596     6.1038 H         12 DT      0.0000
    701 H73        3.0832     5.0769     6.5643 H         12 DT      0.0000
    702 P         -3.7985     9.9718     7.1160 P.3       13 DG      0.0000
    703 OP1       -4.7208    10.9509     6.4010 O.co2     13 DG      0.0000
    704 OP2       -2.7321    10.6067     7.8696 O.co2     13 DG      0.0000
    705 O5'       -4.5612     8.6637     7.7256 O.3       13 DG      0.0000
    706 C5'       -5.2600     7.9525     6.6350 C.3       13 DG      0.0000
    707 C4'       -5.6598     6.6032     7.1550 C.3       13 DG      0.0000
    708 O4'       -4.7361     5.5632     6.9744 O.3       13 DG      0.0000
    709 C3'       -6.0099     6.6299     8.6630 C.3       13 DG      0.0000
    710 O3'       -7.3359     6.0698     8.8219 O.3       13 DG      0.0000
    711 C2'       -4.8753     5.8694     9.3156 C.3       13 DG      0.0000
    712 C1'       -4.5177     4.8566     8.2341 C.3       13 DG      0.0000
    713 N9        -3.1496     4.3547     8.4036 N.ar      13 DG      0.0000
    714 C8        -2.0195     5.0478     8.7398 C.ar      13 DG      0.0000
    715 N7        -0.9317     4.3141     8.8255 N.ar      13 DG      0.0000
    716 C5        -1.3881     3.0400     8.4955 C.ar      13 DG      0.0000
    717 C6        -0.6967     1.7984     8.4012 C.2       13 DG      0.0000
    718 O6         0.5079     1.5758     8.5935 O.2       13 DG      0.0000
    719 N1        -1.4937     0.7277     8.0661 N.am      13 DG      0.0000
    720 C2        -2.8296     0.8661     7.8424 C.2       13 DG      0.0000
    721 N2        -3.4463    -0.2822     7.5335 N.pl3     13 DG      0.0000
    722 N3        -3.5193     2.0023     7.9134 N.2       13 DG      0.0000
    723 C4        -2.7426     3.0496     8.2400 C.ar      13 DG      0.0000
    724 H5'       -6.1457     8.5122     6.3345 H         13 DG      0.0000
    725 H5''      -4.5907     7.8358     5.7826 H         13 DG      0.0000
    726 H4'       -6.5676     6.3158     6.6244 H         13 DG      0.0000
    727 H3'       -6.0068     7.6606     9.0178 H         13 DG      0.0000
    728 H2'       -4.0340     6.5256     9.5386 H         13 DG      0.0000
    729 H2''      -5.2192     5.3639    10.2180 H         13 DG      0.0000
    730 H1'       -5.2112     4.0178     8.2930 H         13 DG      0.0000
    731 H8        -2.0204     6.1126     8.9204 H         13 DG      0.0000
    732 H1        -1.0753    -0.1878     7.9838 H         13 DG      0.0000
    733 H21       -2.9179    -1.1415     7.4833 H         13 DG      0.0000
    734 H22       -4.4396    -0.2888     7.3509 H         13 DG      0.0000
    735 P         -8.0539     6.0478    10.2103 P.3       14 DA      0.0000
    736 OP1       -8.8723     7.2466    10.5657 O.co2     14 DA      0.0000
    737 OP2       -6.7613     6.0738    11.1060 O.co2     14 DA      0.0000
    738 O5'       -8.6619     4.6045    10.4594 O.3       14 DA      0.0000
    739 C5'       -8.9913     3.6600     9.4304 C.3       14 DA      0.0000
    740 C4'       -8.4181     2.3343     9.9047 C.3       14 DA      0.0000
    741 O4'       -7.0095     2.3473     9.8143 O.3       14 DA      0.0000
    742 C3'       -8.7677     1.9187    11.3338 C.3       14 DA      0.0000
    743 O3'       -9.2011     0.5438    11.3860 O.3       14 DA      0.0000
    744 C2'       -7.4434     2.1578    12.0692 C.3       14 DA      0.0000
    745 C1'       -6.4792     1.6854    10.9916 C.3       14 DA      0.0000
    746 N9        -5.0901     2.0959    11.2200 N.ar      14 DA      0.0000
    747 C8        -4.5659     3.3388    11.4358 C.ar      14 DA      0.0000
    748 N7        -3.2619     3.3457    11.6007 N.ar      14 DA      0.0000
    749 C5        -2.9018     2.0138    11.4605 C.ar      14 DA      0.0000
    750 C6        -1.6437     1.3745    11.5085 C.ar      14 DA      0.0000
    751 N6        -0.4859     2.0021    11.7283 N.pl3     14 DA      0.0000
    752 N1        -1.6700     0.0218    11.3187 N.ar      14 DA      0.0000
    753 C2        -2.8331    -0.6345    11.1009 C.ar      14 DA      0.0000
    754 N3        -4.0522    -0.0998    11.0427 N.ar      14 DA      0.0000
    755 C4        -4.0072     1.2319    11.2295 C.ar      14 DA      0.0000
    756 H5'       -8.5392     3.9542     8.4832 H         14 DA      0.0000
    757 H5''     -10.0734     3.5841     9.3226 H         14 DA      0.0000
    758 H4'       -8.7853     1.5567     9.2349 H         14 DA      0.0000
    759 H3'       -9.5427     2.5717    11.7352 H         14 DA      0.0000
    760 H2'       -7.2972     3.2096    12.3147 H         14 DA      0.0000
    761 H2''      -7.3717     1.5338    12.9601 H         14 DA      0.0000
    762 H1'       -6.5401     0.6031    10.8771 H         14 DA      0.0000
    763 H8        -5.1684     4.2345    11.4679 H         14 DA      0.0000
    764 H2        -2.7663    -1.7032    10.9596 H         14 DA      0.0000
    765 H61       -0.3391     2.9967    11.6309 H         14 DA      0.0000
    766 H62        0.3724     1.4982    11.5568 H         14 DA      0.0000
    767 P        -10.2469    -0.0053    12.5275 P.3       15 DA      0.0000
    768 OP1      -11.4988    -0.5185    11.8604 O.co2     15 DA      0.0000
    769 OP2      -10.4219     1.2033    13.3584 O.co2     15 DA      0.0000
    770 O5'       -9.5172    -1.3210    13.0583 O.3       15 DA      0.0000
    771 C5'       -9.2241    -2.4478    12.2340 C.3       15 DA      0.0000
    772 C4'       -7.9545    -3.0971    12.7563 C.3       15 DA      0.0000
    773 O4'       -6.8927    -2.1856    12.7845 O.3       15 DA      0.0000
    774 C3'       -8.0165    -3.7556    14.1236 C.3       15 DA      0.0000
    775 O3'       -7.7893    -5.1627    14.0458 O.3       15 DA      0.0000
    776 C2'       -6.9894    -2.9743    14.9523 C.3       15 DA      0.0000
    777 C1'       -6.0478    -2.4138    13.9585 C.3       15 DA      0.0000
    778 N9        -5.3486    -1.1440    14.2266 N.ar      15 DA      0.0000
    779 C8        -5.8463     0.1314    14.3418 C.ar      15 DA      0.0000
    780 N7        -4.9278     1.0528    14.5111 N.ar      15 DA      0.0000
    781 C5        -3.7332     0.3408    14.4741 C.ar      15 DA      0.0000
    782 C6        -2.3771     0.7582    14.5945 C.ar      15 DA      0.0000
    783 N6        -1.9695     2.0066    14.7862 N.pl3     15 DA      0.0000
    784 N1        -1.4390    -0.2388    14.4963 N.ar      15 DA      0.0000
    785 C2        -1.8202    -1.5355    14.3073 C.ar      15 DA      0.0000
    786 N3        -3.0628    -1.9918    14.1994 N.ar      15 DA      0.0000
    787 C4        -3.9729    -1.0014    14.2913 C.ar      15 DA      0.0000
    788 H5'       -9.0761    -2.1233    11.2039 H         15 DA      0.0000
    789 H5''     -10.0472    -3.1608    12.2799 H         15 DA      0.0000
    790 H4'       -7.6826    -3.8757    12.0436 H         15 DA      0.0000
    791 H3'       -9.0065    -3.5859    14.5468 H         15 DA      0.0000
    792 H2'       -7.4761    -2.1759    15.5126 H         15 DA      0.0000
    793 H2''      -6.4645    -3.6456    15.6319 H         15 DA      0.0000
    794 H1'       -5.3069    -3.1745    13.7125 H         15 DA      0.0000
    795 H8        -6.9018     0.3559    14.2969 H         15 DA      0.0000
    796 H2        -1.0286    -2.2670    14.2381 H         15 DA      0.0000
    797 H61       -2.5915     2.7325    15.1123 H         15 DA      0.0000
    798 H62       -1.0044     2.2387    14.5994 H         15 DA      0.0000
    799 P         -8.4750    -6.2851    15.0020 P.3       16 DT      0.0000
    800 OP1       -8.9076    -7.5104    14.2047 O.co2     16 DT      0.0000
    801 OP2       -9.5112    -5.6942    15.8226 O.co2     16 DT      0.0000
    802 O5'       -7.1692    -6.8665    15.8157 O.3       16 DT      0.0000
    803 C5'       -6.0217    -6.9872    14.8706 C.3       16 DT      0.0000
    804 C4'       -4.8360    -6.4907    15.6583 C.3       16 DT      0.0000
    805 O4'       -4.8282    -5.0940    15.8503 O.3       16 DT      0.0000
    806 C3'       -4.7851    -7.0924    17.0749 C.3       16 DT      0.0000
    807 O3'       -3.8914    -8.1902    17.0766 O.3       16 DT      0.0000
    808 C2'       -4.3732    -5.9280    17.9722 C.3       16 DT      0.0000
    809 C1'       -3.9004    -4.9150    17.0076 C.3       16 DT      0.0000
    810 N1        -3.9261    -3.5012    17.3473 N.am      16 DT      0.0000
    811 C2        -2.6961    -2.8655    17.4852 C.2       16 DT      0.0000
    812 O2        -1.6620    -3.5150    17.3972 O.2       16 DT      0.0000
    813 N3        -2.6877    -1.5272    17.7392 N.am      16 DT      0.0000
    814 C4        -3.8321    -0.7920    17.8594 C.2       16 DT      0.0000
    815 O4        -3.7410     0.4512    18.1146 O.2       16 DT      0.0000
    816 C5        -5.0870    -1.4640    17.6878 C.2       16 DT      0.0000
    817 C7        -6.3768    -0.6961    17.7753 C.3       16 DT      0.0000
    818 C6        -5.0897    -2.7836    17.4320 C.2       16 DT      0.0000
    819 H5'       -5.8776    -8.0247    14.5690 H         16 DT      0.0000
    820 H5''      -6.1847    -6.3580    13.9956 H         16 DT      0.0000
    821 H4'       -3.9257    -6.7729    15.1292 H         16 DT      0.0000
    822 H3'       -5.7802    -7.4346    17.3592 H         16 DT      0.0000
    823 H2'       -5.2223    -5.5562    18.5456 H         16 DT      0.0000
    824 H2''      -3.5642    -6.2272    18.6386 H         16 DT      0.0000
    825 H1'       -2.8917    -5.1793    16.6902 H         16 DT      0.0000
    826 H3        -1.7985    -1.0596    17.8429 H         16 DT      0.0000
    827 H6        -6.0326    -3.2906    17.2899 H         16 DT      0.0000
    828 H71       -6.1630     0.3512    17.9884 H         16 DT      0.0000
    829 H72       -6.9097    -0.7724    16.8275 H         16 DT      0.0000
    830 H73       -6.9931    -1.1107    18.5731 H         16 DT      0.0000
    831 P         -3.6483    -9.2513    18.1832 P.3       17 DT      0.0000
    832 OP1       -3.0433   -10.5412    17.5711 O.co2     17 DT      0.0000
    833 OP2       -4.9693    -9.5067    18.8132 O.co2     17 DT      0.0000
    834 O5'       -2.4543    -8.6449    19.0655 O.3       17 DT      0.0000
    835 C5'       -1.1877    -8.6389    18.3538 C.3       17 DT      0.0000
    836 C4'       -0.2645    -7.6859    19.0299 C.3       17 DT      0.0000
    837 O4'       -0.7136    -6.3367    19.0066 O.3       17 DT      0.0000
    838 C3'        0.0363    -8.0267    20.4965 C.3       17 DT      0.0000
    839 O3'        1.4179    -7.8729    20.7606 O.3       17 DT      0.0000
    840 C2'       -0.7632    -6.9256    21.2329 C.3       17 DT      0.0000
    841 C1'       -0.3868    -5.7691    20.3293 C.3       17 DT      0.0000
    842 N1        -1.1830    -4.5929    20.6270 N.am      17 DT      0.0000
    843 C2        -0.5491    -3.3622    20.6818 C.2       17 DT      0.0000
    844 O2         0.6671    -3.3092    20.4934 O.2       17 DT      0.0000
    845 N3        -1.3065    -2.2563    20.9477 N.am      17 DT      0.0000
    846 C4        -2.6498    -2.3295    21.1548 C.2       17 DT      0.0000
    847 O4        -3.2880    -1.2613    21.3781 O.2       17 DT      0.0000
    848 C5        -3.2921    -3.6003    21.0897 C.2       17 DT      0.0000
    849 C7        -4.7694    -3.7622    21.2996 C.3       17 DT      0.0000
    850 C6        -2.5331    -4.6760    20.8286 C.2       17 DT      0.0000
    851 H5'       -0.7554    -9.6395    18.3662 H         17 DT      0.0000
    852 H5''      -1.3489    -8.3230    17.3230 H         17 DT      0.0000
    853 H4'        0.6827    -7.7189    18.4914 H         17 DT      0.0000
    854 H3'       -0.3157    -9.0244    20.7590 H         17 DT      0.0000
    855 H2'       -1.8356    -7.1207    21.2316 H         17 DT      0.0000
    856 H2''      -0.3893    -6.7749    22.2456 H         17 DT      0.0000
    857 H1'        0.6777    -5.5472    20.4049 H         17 DT      0.0000
    858 H3        -0.8543    -1.3543    20.9922 H         17 DT      0.0000
    859 H6        -3.0070    -5.6450    20.7755 H         17 DT      0.0000
    860 H71       -5.2175    -2.7887    21.4985 H         17 DT      0.0000
    861 H72       -5.2183    -4.1924    20.4043 H         17 DT      0.0000
    862 H73       -4.9456    -4.4234    22.1480 H         17 DT      0.0000
    863 P          2.5624    -8.7580    21.3685 P.3       18 DC      0.0000
    864 OP1        3.5409    -9.2076    20.3006 O.co2     18 DC      0.0000
    865 OP2        1.8739    -9.8348    22.1035 O.co2     18 DC      0.0000
    866 O5'        3.2991    -7.5601    22.1946 O.3       18 DC      0.0000
    867 C5'        3.5162    -6.5193    21.1723 C.3       18 DC      0.0000
    868 C4'        4.1317    -5.3392    21.8688 C.3       18 DC      0.0000
    869 O4'        3.2116    -4.3216    22.1157 O.3       18 DC      0.0000
    870 C3'        4.8736    -5.6646    23.1603 C.3       18 DC      0.0000
    871 O3'        6.2209    -5.2184    23.0806 O.3       18 DC      0.0000
    872 C2'        3.9601    -5.0266    24.2090 C.3       18 DC      0.0000
    873 C1'        3.3248    -3.8890    23.5126 C.3       18 DC      0.0000
    874 N1         1.9263    -3.5994    23.8447 N.am      18 DC      0.0000
    875 C2         1.6258    -2.2633    24.1005 C.2       18 DC      0.0000
    876 O2         2.5050    -1.3962    24.1050 O.2       18 DC      0.0000
    877 N3         0.3172    -1.9505    24.3744 N.2       18 DC      0.0000
    878 C4        -0.6596    -2.9023    24.3644 C.2       18 DC      0.0000
    879 N4        -1.8953    -2.5006    24.6413 N.pl3     18 DC      0.0000
    880 C5        -0.3427    -4.2502    24.0864 C.2       18 DC      0.0000
    881 C6         0.9474    -4.5417    23.8216 C.2       18 DC      0.0000
    882 H5'        4.1889    -6.8896    20.3986 H         18 DC      0.0000
    883 H5''       2.5633    -6.2318    20.7281 H         18 DC      0.0000
    884 H4'        4.8717    -4.9270    21.1828 H         18 DC      0.0000
    885 H3'        4.8704    -6.7451    23.3036 H         18 DC      0.0000
    886 H2'        3.2073    -5.7388    24.5469 H         18 DC      0.0000
    887 H2''       4.5483    -4.6700    25.0546 H         18 DC      0.0000
    888 H1'        3.9380    -2.9914    23.5936 H         18 DC      0.0000
    889 H5        -1.1031    -5.0171    24.0858 H         18 DC      0.0000
    890 H6         1.2121    -5.5611    23.5826 H         18 DC      0.0000
    891 H41       -2.0772    -1.5274    24.8405 H         18 DC      0.0000
    892 H42       -2.6528    -3.1686    24.6526 H         18 DC      0.0000
    893 P          7.4476    -5.6898    24.0326 P.3       19 DA      0.0000
    894 OP1        8.7251    -5.4945    23.2389 O.co2     19 DA      0.0000
    895 OP2        7.2312    -7.1095    24.3782 O.co2     19 DA      0.0000
    896 O5'        7.3533    -4.6813    25.3296 O.3       19 DA      0.0000
    897 C5'        7.3179    -3.2514    25.0344 C.3       19 DA      0.0000
    898 C4'        7.1316    -2.4638    26.2897 C.3       19 DA      0.0000
    899 O4'        5.7949    -2.0147    26.5318 O.3       19 DA      0.0000
    900 C3'        7.4661    -3.2050    27.5949 C.3       19 DA      0.0000
    901 O3'        7.6837    -2.2380    28.6249 O.3       19 DA      0.0000
    902 C2'        6.1316    -3.9467    27.8095 C.3       19 DA      0.0000
    903 C1'        5.2226    -2.7268    27.6262 C.3       19 DA      0.0000
    904 N9         3.8416    -3.1689    27.5319 N.ar      19 DA      0.0000
    905 C8         3.3147    -4.4254    27.4161 C.ar      19 DA      0.0000
    906 N7         1.9948    -4.4774    27.3975 N.ar      19 DA      0.0000
    907 C5         1.6244    -3.1443    27.5050 C.ar      19 DA      0.0000
    908 C6         0.3575    -2.5112    27.5396 C.ar      19 DA      0.0000
    909 N6        -0.7988    -3.1440    27.4543 N.pl3     19 DA      0.0000
    910 N1         0.3679    -1.1521    27.6721 N.ar      19 DA      0.0000
    911 C2         1.5442    -0.4553    27.7523 C.ar      19 DA      0.0000
    912 N3         2.7682    -0.9770    27.7225 N.ar      19 DA      0.0000
    913 C4         2.7388    -2.3267    27.5995 C.ar      19 DA      0.0000
    914 H5'        8.2563    -2.9589    24.5633 H         19 DA      0.0000
    915 H5''       6.4926    -3.0443    24.3531 H         19 DA      0.0000
    916 H4'        7.7736    -1.5849    26.2308 H         19 DA      0.0000
    917 H3'        8.3079    -3.8881    27.4813 H         19 DA      0.0000
    918 H2'        5.9552    -4.7170    27.0587 H         19 DA      0.0000
    919 H2''       6.0580    -4.3503    28.8194 H         19 DA      0.0000
    920 H1'        5.3147    -2.1038    28.5159 H         19 DA      0.0000
    921 H8         3.9314    -5.3092    27.3451 H         19 DA      0.0000
    922 H2         1.4717     0.6179    27.8488 H         19 DA      0.0000
    923 H61       -1.7580    -2.8841    27.6344 H         19 DA      0.0000
    924 H62       -0.7023    -4.0989    27.1396 H         19 DA      0.0000
    925 P          9.0799    -1.4690    28.7653 P.3       20 DC      0.0000
    926 OP1        9.8981    -1.5047    27.5202 O.co2     20 DC      0.0000
    927 OP2        9.7285    -2.1951    29.9082 O.co2     20 DC      0.0000
    928 O5'        8.6438     0.0291    29.0485 O.3       20 DC      0.0000
    929 C5'        8.2656     0.9261    27.9608 C.3       20 DC      0.0000
    930 C4'        7.2804     1.8654    28.6657 C.3       20 DC      0.0000
    931 O4'        6.1316     1.1121    28.9777 O.3       20 DC      0.0000
    932 C3'        7.8104     2.4428    29.9756 C.3       20 DC      0.0000
    933 O3'        7.6953     3.8822    30.0435 O.3       20 DC      0.0000
    934 C2'        6.9971     1.7167    31.0578 C.3       20 DC      0.0000
    935 C1'        5.7087     1.4755    30.3817 C.3       20 DC      0.0000
    936 N1         4.8636     0.3376    30.7345 N.am      20 DC      0.0000
    937 C2         3.4928     0.5873    30.7076 C.2       20 DC      0.0000
    938 O2         3.0272     1.7009    30.5007 O.2       20 DC      0.0000
    939 N3         2.6620    -0.4594    30.9607 N.2       20 DC      0.0000
    940 C4         3.1208    -1.7128    31.1941 C.2       20 DC      0.0000
    941 N4         2.2088    -2.6553    31.4250 N.pl3     20 DC      0.0000
    942 C5         4.5216    -1.9578    31.2006 C.2       20 DC      0.0000
    943 C6         5.3353    -0.9201    30.9512 C.2       20 DC      0.0000
    944 H5'        9.1280     1.4704    27.5759 H         20 DC      0.0000
    945 H5''       7.7690     0.3755    27.1617 H         20 DC      0.0000
    946 H4'        7.0097     2.6792    27.9930 H         20 DC      0.0000
    947 H3'        8.8600     2.1687    30.0815 H         20 DC      0.0000
    948 H2'        7.4728     0.7788    31.3448 H         20 DC      0.0000
    949 H2''       6.8588     2.3582    31.9281 H         20 DC      0.0000
    950 H1'        5.1167     2.3906    30.3684 H         20 DC      0.0000
    951 H5         4.9162    -2.9433    31.3991 H         20 DC      0.0000
    952 H6         6.4015    -1.0893    30.9215 H         20 DC      0.0000
    953 H41        1.2264    -2.4210    31.4140 H         20 DC      0.0000
    954 H42        2.4995    -3.6045    31.6111 H         20 DC      0.0000
    955 P         -8.0915    -2.5641    33.0030 P.3       20 DG      0.0000
    956 OP1       -9.4853    -3.0761    33.1818 O.co2     20 DG      0.0000
    957 OP2       -7.3192    -3.3032    31.9182 O.co2     20 DG      0.0000
    958 O5'       -8.1320    -0.9318    32.7958 O.3       20 DG      0.0000
    959 C5'       -7.6937    -0.0616    33.8916 C.3       20 DG      0.0000
    960 C4'       -6.9476     1.1099    33.2573 C.3       20 DG      0.0000
    961 O4'       -5.5709     0.8656    33.1615 O.3       20 DG      0.0000
    962 C3'       -7.4181     1.4715    31.8510 C.3       20 DG      0.0000
    963 O3'       -7.4659     2.8922    31.5840 O.3       20 DG      0.0000
    964 C2'       -6.3922     0.7622    30.9487 C.3       20 DG      0.0000
    965 C1'       -5.1261     0.9287    31.7725 C.3       20 DG      0.0000
    966 N9        -4.1691    -0.1569    31.4992 N.ar      20 DG      0.0000
    967 C8        -4.4331    -1.4969    31.3425 C.ar      20 DG      0.0000
    968 N7        -3.3707    -2.2254    31.1241 N.ar      20 DG      0.0000
    969 C5        -2.3295    -1.3051    31.1489 C.ar      20 DG      0.0000
    970 C6        -0.9275    -1.4710    30.9924 C.2       20 DG      0.0000
    971 O6        -0.3258    -2.5364    30.7956 O.2       20 DG      0.0000
    972 N1        -0.2072    -0.3052    31.0794 N.am      20 DG      0.0000
    973 C2        -0.7883     0.8995    31.3000 C.2       20 DG      0.0000
    974 N2         0.0366     1.9411    31.3634 N.pl3     20 DG      0.0000
    975 N3        -2.1008     1.1103    31.4578 N.2       20 DG      0.0000
    976 C4        -2.8069    -0.0340    31.3745 C.ar      20 DG      0.0000
    977 H5'       -8.5568     0.3018    34.4494 H         20 DG      0.0000
    978 H5''      -7.0265    -0.6100    34.5565 H         20 DG      0.0000
    979 H4'       -7.0902     1.9830    33.8940 H         20 DG      0.0000
    980 H3'       -8.4048     1.0407    31.6805 H         20 DG      0.0000
    981 H2'       -6.6426    -0.2890    30.8060 H         20 DG      0.0000
    982 H2''      -6.3009     1.2726    29.9899 H         20 DG      0.0000
    983 H1'       -4.6675     1.8960    31.5673 H         20 DG      0.0000
    984 H8        -5.4294    -1.9104    31.3953 H         20 DG      0.0000
    985 H1         0.7964    -0.3469    30.9746 H         20 DG      0.0000
    986 H21        1.0309     1.8056    31.2483 H         20 DG      0.0000
    987 H22       -0.3312     2.8675    31.5266 H         20 DG      0.0000
    988 P         -7.2137     3.3204    30.0605 P.3       19 DT      0.0000
    989 OP1       -7.8975     4.6028    29.6696 O.co2     19 DT      0.0000
    990 OP2       -7.8117     2.1573    29.3599 O.co2     19 DT      0.0000
    991 O5'       -5.6250     3.4824    29.9296 O.3       19 DT      0.0000
    992 C5'       -5.0736     4.8114    30.1972 C.3       19 DT      0.0000
    993 C4'       -3.7707     4.9499    29.4402 C.3       19 DT      0.0000
    994 O4'       -3.0179     3.7504    29.4129 O.3       19 DT      0.0000
    995 C3'       -3.9659     5.3484    27.9855 C.3       19 DT      0.0000
    996 O3'       -2.9728     6.2726    27.4904 O.3       19 DT      0.0000
    997 C2'       -3.9101     4.0208    27.2626 C.3       19 DT      0.0000
    998 C1'       -2.7830     3.3623    28.0407 C.3       19 DT      0.0000
    999 N1        -2.9564     1.9090    27.8894 N.am      19 DT      0.0000
   1000 C2        -1.8034     1.1381    27.9962 C.2       19 DT      0.0000
   1001 O2        -0.7150     1.6705    28.1859 O.2       19 DT      0.0000
   1002 N3        -1.9448    -0.2162    27.8760 N.am      19 DT      0.0000
   1003 C4        -3.1577    -0.7979    27.6584 C.2       19 DT      0.0000
   1004 O4        -3.1900    -2.0692    27.5609 O.2       19 DT      0.0000
   1005 C5        -4.3204     0.0176    27.5521 C.2       19 DT      0.0000
   1006 C7        -5.6638    -0.6136    27.3231 C.3       19 DT      0.0000
   1007 C6        -4.1764     1.3397    27.6738 C.2       19 DT      0.0000
   1008 H5'       -5.7760     5.5751    29.8635 H         19 DT      0.0000
   1009 H5''      -4.8903     4.9238    31.2658 H         19 DT      0.0000
   1010 H4'       -3.1716     5.7188    29.9281 H         19 DT      0.0000
   1011 H3'       -4.9571     5.7845    27.8615 H         19 DT      0.0000
   1012 H2'       -4.8451     3.4680    27.3542 H         19 DT      0.0000
   1013 H2''      -3.6363     4.1562    26.2162 H         19 DT      0.0000
   1014 H1'       -1.8046     3.6908    27.6901 H         19 DT      0.0000
   1015 H3        -1.1261    -0.8030    27.9507 H         19 DT      0.0000
   1016 H6        -5.0478     1.9734    27.5997 H         19 DT      0.0000
   1017 H71       -5.5506    -1.6954    27.2544 H         19 DT      0.0000
   1018 H72       -6.3258    -0.3698    28.1540 H         19 DT      0.0000
   1019 H73       -6.0906    -0.2332    26.3950 H         19 DT      0.0000
   1020 P         -3.7858     7.4923    26.7120 P.3       18 DG      0.0000
   1021 OP1       -4.0574     8.6753    27.5832 O.co2     18 DG      0.0000
   1022 OP2       -4.9916     6.7278    26.3064 O.co2     18 DG      0.0000
   1023 O5'       -2.6917     7.9275    25.6312 O.3       18 DG      0.0000
   1024 C5'       -1.5836     8.7617    26.0546 C.3       18 DG      0.0000
   1025 C4'       -0.3367     8.0094    25.6069 C.3       18 DG      0.0000
   1026 O4'       -0.4909     6.6306    25.8776 O.3       18 DG      0.0000
   1027 C3'       -0.0150     8.1513    24.1192 C.3       18 DG      0.0000
   1028 O3'        1.2938     8.6509    23.9106 O.3       18 DG      0.0000
   1029 C2'       -0.2886     6.7736    23.5425 C.3       18 DG      0.0000
   1030 C1'       -0.0663     5.8652    24.7286 C.3       18 DG      0.0000
   1031 N9        -0.8593     4.6392    24.6050 N.ar      18 DG      0.0000
   1032 C8        -2.2106     4.5155    24.4462 C.ar      18 DG      0.0000
   1033 N7        -2.6211     3.2731    24.3681 N.ar      18 DG      0.0000
   1034 C5        -1.4568     2.5230    24.5056 C.ar      18 DG      0.0000
   1035 C6        -1.2286     1.1216    24.5151 C.2       18 DG      0.0000
   1036 O6        -2.0693     0.2336    24.4160 O.2       18 DG      0.0000
   1037 N1         0.0801     0.7599    24.6641 N.am      18 DG      0.0000
   1038 C2         1.0838     1.6887    24.7969 C.2       18 DG      0.0000
   1039 N2         2.3164     1.1988    24.9326 N.pl3     18 DG      0.0000
   1040 N3         0.9379     3.0176    24.8012 N.2       18 DG      0.0000
   1041 C4        -0.3641     3.3609    24.6505 C.ar      18 DG      0.0000
   1042 H5'       -1.6344     9.7396    25.5759 H         18 DG      0.0000
   1043 H5''      -1.5880     8.8722    27.1390 H         18 DG      0.0000
   1044 H4'        0.5133     8.3798    26.1799 H         18 DG      0.0000
   1045 H3'       -0.7239     8.8535    23.6806 H         18 DG      0.0000
   1046 H2'       -1.3124     6.6976    23.1761 H         18 DG      0.0000
   1047 H2''       0.4204     6.5443    22.7469 H         18 DG      0.0000
   1048 H1'        0.9917     5.6178    24.8156 H         18 DG      0.0000
   1049 H8        -2.8783     5.3624    24.3901 H         18 DG      0.0000
   1050 H1         0.3176    -0.2217    24.6769 H         18 DG      0.0000
   1051 H21        2.4656     0.1999    24.9336 H         18 DG      0.0000
   1052 H22        3.1009     1.8266    25.0344 H         18 DG      0.0000
   1053 P          2.5374     8.2034    23.0443 P.3       17 DA      0.0000
   1054 OP1        3.8367     8.4366    23.8257 O.co2     17 DA      0.0000
   1055 OP2        2.4983     9.0526    21.8516 O.co2     17 DA      0.0000
   1056 O5'        2.4125     6.5885    22.8695 O.3       17 DA      0.0000
   1057 C5'        2.9857     5.8705    24.0260 C.3       17 DA      0.0000
   1058 C4'        4.1421     5.0580    23.4982 C.3       17 DA      0.0000
   1059 O4'        3.7977     3.7140    23.2759 O.3       17 DA      0.0000
   1060 C3'        4.6674     5.5702    22.1577 C.3       17 DA      0.0000
   1061 O3'        6.0728     5.5449    22.0825 O.3       17 DA      0.0000
   1062 C2'        3.8919     4.7275    21.1611 C.3       17 DA      0.0000
   1063 C1'        3.4922     3.4722    21.8850 C.3       17 DA      0.0000
   1064 N9         2.0746     3.1423    21.6595 N.ar      17 DA      0.0000
   1065 C8         1.0064     3.9930    21.4731 C.ar      17 DA      0.0000
   1066 N7        -0.1415     3.3860    21.2772 N.ar      17 DA      0.0000
   1067 C5         0.1917     2.0401    21.3641 C.ar      17 DA      0.0000
   1068 C6        -0.5987     0.8718    21.2584 C.ar      17 DA      0.0000
   1069 N6        -1.9028     0.8828    21.0460 N.pl3     17 DA      0.0000
   1070 N1         0.0631    -0.3119    21.3821 N.ar      17 DA      0.0000
   1071 C2         1.4097    -0.3535    21.6067 C.ar      17 DA      0.0000
   1072 N3         2.2081     0.7056    21.7226 N.ar      17 DA      0.0000
   1073 C4         1.5392     1.8761    21.5864 C.ar      17 DA      0.0000
   1074 H5'        3.3361     6.5816    24.7741 H         17 DA      0.0000
   1075 H5''       2.2361     5.2105    24.4627 H         17 DA      0.0000
   1076 H4'        4.9528     5.0934    24.2259 H         17 DA      0.0000
   1077 H3'        4.3443     6.6051    22.0446 H         17 DA      0.0000
   1078 H2'        4.5201     4.4843    20.3043 H         17 DA      0.0000
   1079 H2''       3.0034     5.2655    20.8306 H         17 DA      0.0000
   1080 H1'        4.1078     2.6471    21.5268 H         17 DA      0.0000
   1081 H8         1.1050     5.0684    21.4870 H         17 DA      0.0000
   1082 H2         1.8654    -1.3283    21.6979 H         17 DA      0.0000
   1083 H61       -2.4900     0.1239    21.3614 H         17 DA      0.0000
   1084 H62       -2.3197     1.6637    20.5597 H         17 DA      0.0000
   1085 P          7.0503     5.1735    20.8979 P.3       16 DA      0.0000
   1086 OP1        8.5119     5.0450    21.4178 O.co2     16 DA      0.0000
   1087 OP2        6.9673     6.3397    19.9642 O.co2     16 DA      0.0000
   1088 O5'        6.6550     3.7337    20.3952 O.3       16 DA      0.0000
   1089 C5'        7.3956     2.5827    20.8511 C.3       16 DA      0.0000
   1090 C4'        6.8122     1.3758    20.1491 C.3       16 DA      0.0000
   1091 O4'        5.4184     1.3981    20.0284 O.3       16 DA      0.0000
   1092 C3'        7.3673     1.1622    18.7416 C.3       16 DA      0.0000
   1093 O3'        8.1388    -0.0534    18.7102 O.3       16 DA      0.0000
   1094 C2'        6.1342     1.2645    17.8421 C.3       16 DA      0.0000
   1095 C1'        5.0174     0.8255    18.7398 C.3       16 DA      0.0000
   1096 N9         3.6931     1.3598    18.4402 N.ar      16 DA      0.0000
   1097 C8         3.3031     2.6687    18.2455 C.ar      16 DA      0.0000
   1098 N7         2.0129     2.8126    18.0401 N.ar      16 DA      0.0000
   1099 C5         1.5134     1.5270    18.1146 C.ar      16 DA      0.0000
   1100 C6         0.2034     1.0146    17.9811 C.ar      16 DA      0.0000
   1101 N6        -0.8650     1.7676    17.7379 N.pl3     16 DA      0.0000
   1102 N1         0.0898    -0.3443    18.1299 N.ar      16 DA      0.0000
   1103 C2         1.1530    -1.1318    18.3825 C.ar      16 DA      0.0000
   1104 N3         2.4165    -0.7192    18.5213 N.ar      16 DA      0.0000
   1105 C4         2.5253     0.6201    18.3741 C.ar      16 DA      0.0000
   1106 H5'        8.4497     2.6908    20.5959 H         16 DA      0.0000
   1107 H5''       7.2845     2.4738    21.9299 H         16 DA      0.0000
   1108 H4'        7.0740     0.4976    20.7393 H         16 DA      0.0000
   1109 H3'        8.0313     1.9941    18.5066 H         16 DA      0.0000
   1110 H2'        5.9825     2.2890    17.5022 H         16 DA      0.0000
   1111 H2''       6.2265     0.5901    16.9907 H         16 DA      0.0000
   1112 H1'        4.9837    -0.2623    18.8009 H         16 DA      0.0000
   1113 H8         3.9942     3.4985    18.2605 H         16 DA      0.0000
   1114 H2         0.9679    -2.1912    18.4815 H         16 DA      0.0000
   1115 H61       -1.7470     1.3730    18.0319 H         16 DA      0.0000
   1116 H62       -0.7993     2.6708    17.2906 H         16 DA      0.0000
   1117 P          8.8226    -0.5076    17.3252 P.3       15 DT      0.0000
   1118 OP1        9.8655    -1.5810    17.3833 O.co2     15 DT      0.0000
   1119 OP2        9.2928     0.8156    16.8126 O.co2     15 DT      0.0000
   1120 O5'        7.4791    -1.1993    16.6221 O.3       15 DT      0.0000
   1121 C5'        6.7582    -1.9649    17.6344 C.3       15 DT      0.0000
   1122 C4'        5.9131    -2.9922    16.9514 C.3       15 DT      0.0000
   1123 O4'        4.5870    -2.5939    16.7710 O.3       15 DT      0.0000
   1124 C3'        6.4364    -3.4237    15.5902 C.3       15 DT      0.0000
   1125 O3'        6.2305    -4.8162    15.3229 O.3       15 DT      0.0000
   1126 C2'        5.6405    -2.4632    14.6968 C.3       15 DT      0.0000
   1127 C1'        4.2697    -2.5144    15.3368 C.3       15 DT      0.0000
   1128 N1         3.5248    -1.2622    15.1069 N.am      15 DT      0.0000
   1129 C2         2.1491    -1.3501    14.9853 C.2       15 DT      0.0000
   1130 O2         1.5747    -2.4394    15.0220 O.2       15 DT      0.0000
   1131 N3         1.4439    -0.1893    14.8179 N.am      15 DT      0.0000
   1132 C4         2.0567     1.0239    14.7693 C.2       15 DT      0.0000
   1133 O4         1.3278     2.0438    14.5838 O.2       15 DT      0.0000
   1134 C5         3.4702     1.0941    14.9177 C.2       15 DT      0.0000
   1135 C7         4.1848     2.4235    14.8656 C.3       15 DT      0.0000
   1136 C6         4.1439    -0.0479    15.0907 C.2       15 DT      0.0000
   1137 H5'        7.4701    -2.4578    18.2965 H         15 DT      0.0000
   1138 H5''       6.1225    -1.2958    18.2144 H         15 DT      0.0000
   1139 H4'        5.9013    -3.8766    17.5885 H         15 DT      0.0000
   1140 H3'        7.4991    -3.1920    15.5182 H         15 DT      0.0000
   1141 H2'        6.0559    -1.4559    14.7274 H         15 DT      0.0000
   1142 H2''       5.6015    -2.8330    13.6722 H         15 DT      0.0000
   1143 H1'        3.7039    -3.3842    15.0029 H         15 DT      0.0000
   1144 H3         0.4390    -0.2349    14.7277 H         15 DT      0.0000
   1145 H6         5.2151    -0.0068    15.2221 H         15 DT      0.0000
   1146 H71        4.5724     2.5891    13.8604 H         15 DT      0.0000
   1147 H72        5.0105     2.4200    15.5772 H         15 DT      0.0000
   1148 H73        3.4875     3.2211    15.1221 H         15 DT      0.0000
   1149 P          6.6745    -5.3236    13.8330 P.3       14 DT      0.0000
   1150 OP1        7.8533    -6.2874    13.9809 O.co2     14 DT      0.0000
   1151 OP2        7.1351    -4.0608    13.1631 O.co2     14 DT      0.0000
   1152 O5'        5.4418    -6.0004    13.1809 O.3       14 DT      0.0000
   1153 C5'        4.4294    -6.6701    13.9323 C.3       14 DT      0.0000
   1154 C4'        3.1397    -6.5586    13.1843 C.3       14 DT      0.0000
   1155 O4'        2.5059    -5.3093    13.1273 O.3       14 DT      0.0000
   1156 C3'        3.1223    -7.0430    11.7183 C.3       14 DT      0.0000
   1157 O3'        1.8004    -7.5806    11.6145 O.3       14 DT      0.0000
   1158 C2'        3.2679    -5.7201    10.9545 C.3       14 DT      0.0000
   1159 C1'        2.2253    -4.9414    11.7303 C.3       14 DT      0.0000
   1160 N1         2.3070    -3.4818    11.6241 N.am      14 DT      0.0000
   1161 C2         1.0773    -2.8098    11.6235 C.2       14 DT      0.0000
   1162 O2         0.0131    -3.4306    11.6665 O.2       14 DT      0.0000
   1163 N3         1.1149    -1.4461    11.5700 N.am      14 DT      0.0000
   1164 C4         2.2806    -0.7418    11.5103 C.2       14 DT      0.0000
   1165 O4         2.2099     0.5225    11.4479 O.2       14 DT      0.0000
   1166 C5         3.5139    -1.4487    11.5185 C.2       14 DT      0.0000
   1167 C7         4.8167    -0.6789    11.4571 C.3       14 DT      0.0000
   1168 C6         3.4724    -2.7826    11.5850 C.2       14 DT      0.0000
   1169 H5'        4.6950    -7.7202    14.0545 H         14 DT      0.0000
   1170 H5''       4.3279    -6.2010    14.9109 H         14 DT      0.0000
   1171 H4'        2.4436    -7.2110    13.7116 H         14 DT      0.0000
   1172 H3'        3.9053    -7.7660    11.4896 H         14 DT      0.0000
   1173 H2'        3.0145    -5.8184     9.8990 H         14 DT      0.0000
   1174 H2''       4.2620    -5.2929    11.0861 H         14 DT      0.0000
   1175 H1'        1.2269    -5.2783    11.4512 H         14 DT      0.0000
   1176 H3         0.2423    -0.9377    11.5749 H         14 DT      0.0000
   1177 H6         4.4040    -3.3284    11.6087 H         14 DT      0.0000
   1178 H71        4.6060     0.3895    11.4083 H         14 DT      0.0000
   1179 H72        5.3748    -0.9798    10.5705 H         14 DT      0.0000
   1180 H73        5.4072    -0.8924    12.3480 H         14 DT      0.0000
   1181 P          1.2432    -8.4672    10.4683 P.3       13 DC      0.0000
   1182 OP1        0.5387    -9.6809    11.0774 O.co2     13 DC      0.0000
   1183 OP2        2.4366    -8.9187     9.6864 O.co2     13 DC      0.0000
   1184 O5'        0.2319    -7.4257     9.7289 O.3       13 DC      0.0000
   1185 C5'       -1.0125    -7.1536    10.4534 C.3       13 DC      0.0000
   1186 C4'       -2.0721    -6.9450     9.4029 C.3       13 DC      0.0000
   1187 O4'       -2.3188    -5.5799     9.1576 O.3       13 DC      0.0000
   1188 C3'       -1.7693    -7.5665     8.0384 C.3       13 DC      0.0000
   1189 O3'       -2.9178    -8.0362     7.3292 O.3       13 DC      0.0000
   1190 C2'       -1.0379    -6.4045     7.3523 C.3       13 DC      0.0000
   1191 C1'       -1.7748    -5.1833     7.8989 C.3       13 DC      0.0000
   1192 N1        -0.7977    -4.0755     8.0167 N.am      13 DC      0.0000
   1193 C2        -1.3093    -2.7787     8.0340 C.2       13 DC      0.0000
   1194 O2        -2.5283    -2.5701     7.9653 O.2       13 DC      0.0000
   1195 N3        -0.4100    -1.7520     8.1372 N.2       13 DC      0.0000
   1196 C4         0.9294    -1.9692     8.2079 C.2       13 DC      0.0000
   1197 N4         1.7666    -0.9346     8.3099 N.pl3     13 DC      0.0000
   1198 C5         1.4251    -3.3027     8.1828 C.2       13 DC      0.0000
   1199 C6         0.5410    -4.3107     8.0892 C.2       13 DC      0.0000
   1200 H5'       -1.2723    -7.9999    11.0894 H         13 DC      0.0000
   1201 H5''      -0.9033    -6.2528    11.0573 H         13 DC      0.0000
   1202 H4'       -2.9970    -7.3884     9.7716 H         13 DC      0.0000
   1203 H3'       -1.0726    -8.3939     8.1726 H         13 DC      0.0000
   1204 H2'       -1.1289    -6.4670     6.2679 H         13 DC      0.0000
   1205 H2''       0.0110    -6.3835     7.6483 H         13 DC      0.0000
   1206 H1'       -2.5785    -4.8994     7.2195 H         13 DC      0.0000
   1207 H5         2.4855    -3.5000     8.2376 H         13 DC      0.0000
   1208 H6         0.9004    -5.3290     8.0711 H         13 DC      0.0000
   1209 H41        1.4044     0.0080     8.3306 H         13 DC      0.0000
   1210 H42        2.7623    -1.0944     8.3662 H         13 DC      0.0000
   1211 P         -3.1404    -7.9648     5.6972 P.3       12 DA      0.0000
   1212 OP1       -4.1436    -9.0290     5.3077 O.co2     12 DA      0.0000
   1213 OP2       -1.7785    -8.1517     5.1271 O.co2     12 DA      0.0000
   1214 O5'       -3.8385    -6.5387     5.5316 O.3       12 DA      0.0000
   1215 C5'       -5.2365    -6.3947     5.9971 C.3       12 DA      0.0000
   1216 C4'       -5.7400    -5.2612     5.1198 C.3       12 DA      0.0000
   1217 O4'       -4.9873    -4.0711     5.3871 O.3       12 DA      0.0000
   1218 C3'       -5.5398    -5.5171     3.6154 C.3       12 DA      0.0000
   1219 O3'       -6.3368    -4.6483     2.8263 O.3       12 DA      0.0000
   1220 C2'       -4.0935    -5.0231     3.4279 C.3       12 DA      0.0000
   1221 C1'       -4.3128    -3.6833     4.1826 C.3       12 DA      0.0000
   1222 N9        -2.9733    -3.1228     4.3280 N.ar      12 DA      0.0000
   1223 C8        -1.7937    -3.8293     4.4008 C.ar      12 DA      0.0000
   1224 N7        -0.7365    -3.0652     4.5155 N.ar      12 DA      0.0000
   1225 C5        -1.2687    -1.7634     4.5091 C.ar      12 DA      0.0000
   1226 C6        -0.6321    -0.4958     4.6090 C.ar      12 DA      0.0000
   1227 N6         0.6887    -0.3351     4.7319 N.pl3     12 DA      0.0000
   1228 N1        -1.4843     0.5665     4.5739 N.ar      12 DA      0.0000
   1229 C2        -2.8249     0.4039     4.4550 C.ar      12 DA      0.0000
   1230 N3        -3.4873    -0.7528     4.3635 N.ar      12 DA      0.0000
   1231 C4        -2.6363    -1.7934     4.3911 C.ar      12 DA      0.0000
   1232 H5'       -5.8065    -7.3087     5.8303 H         12 DA      0.0000
   1233 H5''      -5.2649    -6.1096     7.0487 H         12 DA      0.0000
   1234 H4'       -6.7955    -5.0809     5.3237 H         12 DA      0.0000
   1235 H3'       -5.6654    -6.5657     3.3457 H         12 DA      0.0000
   1236 H2'       -3.3580    -5.6673     3.9095 H         12 DA      0.0000
   1237 H2''      -3.8575    -4.8588     2.3765 H         12 DA      0.0000
   1238 H1'       -4.9416    -3.0152     3.5941 H         12 DA      0.0000
   1239 H8        -1.7452    -4.9077     4.3668 H         12 DA      0.0000
   1240 H2        -3.4203     1.3046     4.4318 H         12 DA      0.0000
   1241 H61        1.2954    -1.1422     4.7566 H         12 DA      0.0000
   1242 H62        1.0803     0.5933     4.8000 H         12 DA      0.0000
   1243 P         -7.2796    -5.2237     1.6854 P.3       11 DC      0.0000
   1244 OP1       -8.5212    -5.6227     2.4657 O.co2     11 DC      0.0000
   1245 OP2       -6.6709    -6.3443     0.9598 O.co2     11 DC      0.0000
   1246 O5'       -7.4124    -3.9067     0.7095 O.3       11 DC      0.0000
   1247 C5'       -7.8289    -2.6554     1.3786 C.3       11 DC      0.0000
   1248 C4'       -7.1021    -1.5044     0.7345 C.3       11 DC      0.0000
   1249 O4'       -5.8744    -1.1728     1.3717 O.3       11 DC      0.0000
   1250 C3'       -6.7622    -1.7628    -0.7433 C.3       11 DC      0.0000
   1251 O3'       -6.7886    -0.5951    -1.5546 O.3       11 DC      0.0000
   1252 C2'       -5.2809    -2.2363    -0.5776 C.3       11 DC      0.0000
   1253 C1'       -4.9040    -0.9991     0.3179 C.3       11 DC      0.0000
   1254 N1        -3.4859    -1.0686     0.5558 N.am      11 DC      0.0000
   1255 C2        -2.8115     0.0993     0.8730 C.2       11 DC      0.0000
   1256 O2        -3.2450     1.2484     1.0134 O.2       11 DC      0.0000
   1257 N3        -1.4606     0.0263     1.0712 N.2       11 DC      0.0000
   1258 C4        -0.7738    -1.1508     0.9552 C.2       11 DC      0.0000
   1259 N4         0.5506    -1.1757     1.1713 N.pl3     11 DC      0.0000
   1260 C5        -1.4795    -2.3409     0.6256 C.2       11 DC      0.0000
   1261 C6        -2.8003    -2.2440     0.4339 C.2       11 DC      0.0000
   1262 H5'       -8.9046    -2.5195     1.2671 H         11 DC      0.0000
   1263 H5''      -7.5735    -2.7036     2.4372 H         11 DC      0.0000
   1264 H4'       -7.7510    -0.6299     0.7813 H         11 DC      0.0000
   1265 H3'       -7.3868    -2.5518    -1.1623 H         11 DC      0.0000
   1266 H2'       -5.1860    -3.1911    -0.0605 H         11 DC      0.0000
   1267 H2''      -4.7434    -2.2315    -1.5259 H         11 DC      0.0000
   1268 H1'       -5.1296    -0.0824    -0.2270 H         11 DC      0.0000
   1269 H5        -0.9683    -3.2878     0.5334 H         11 DC      0.0000
   1270 H6        -3.3494    -3.1359     0.1706 H         11 DC      0.0000
   1271 H41        1.0392    -0.3251     1.4118 H         11 DC      0.0000
   1272 H42        1.0588    -2.0451     1.0934 H         11 DC      0.0000
   1273 P          7.8590     6.2143    35.0446 P.3       21 DG      0.0000
   1274 OP1        9.3205     6.4705    35.0430 O.co2     21 DG      0.0000
   1275 OP2        7.6004     5.1295    36.1003 O.co2     21 DG      0.0000
   1276 O5'        6.9081     7.4774    35.2230 O.3       21 DG      0.0000
   1277 C5'        6.1551     8.1960    34.2230 C.3       21 DG      0.0000
   1278 C4'        4.7330     8.3467    34.7218 C.3       21 DG      0.0000
   1279 O4'        3.9079     7.2814    34.3026 O.3       21 DG      0.0000
   1280 C3'        4.5179     8.4993    36.2140 C.3       21 DG      0.0000
   1281 O3'        3.7453     9.6899    36.5260 O.3       21 DG      0.0000
   1282 C2'        3.8344     7.2126    36.6359 C.3       21 DG      0.0000
   1283 C1'        3.1311     6.7569    35.3802 C.3       21 DG      0.0000
   1284 N9         3.0519     5.2852    35.3511 N.ar      21 DG      0.0000
   1285 C8         4.0374     4.3541    35.5800 C.ar      21 DG      0.0000
   1286 N7         3.6298     3.1082    35.4903 N.ar      21 DG      0.0000
   1287 C5         2.2788     3.2238    35.1733 C.ar      21 DG      0.0000
   1288 C6         1.2756     2.2493    34.9474 C.2       21 DG      0.0000
   1289 O6         1.3855     1.0230    34.9687 O.2       21 DG      0.0000
   1290 N1         0.0329     2.7472    34.6659 N.am      21 DG      0.0000
   1291 C2        -0.2228     4.0149    34.6052 C.2       21 DG      0.0000
   1292 N2        -1.4489     4.2089    34.3084 N.pl3     21 DG      0.0000
   1293 N3         0.6952     5.0491    34.8140 N.2       21 DG      0.0000
   1294 C4         1.9108     4.5534    35.0865 C.ar      21 DG      0.0000
   1295 H5'        6.5968     9.1798    34.0643 H         21 DG      0.0000
   1296 H5''       6.1589     7.6364    33.2876 H         21 DG      0.0000
   1297 H4'        4.3352     9.2488    34.2571 H         21 DG      0.0000
   1298 H3'        5.4873     8.5653    36.7079 H         21 DG      0.0000
   1299 H2'        4.5651     6.4729    36.9628 H         21 DG      0.0000
   1300 H2''       3.1109     7.4080    37.4273 H         21 DG      0.0000
   1301 H1'        2.1267     7.1792    35.3483 H         21 DG      0.0000
   1302 H8         5.0571     4.6232    35.8131 H         21 DG      0.0000
   1303 H1        -0.7201     2.0955    34.4975 H         21 DG      0.0000
   1304 H21       -2.0643     3.4212    34.1641 H         21 DG      0.0000
   1305 H22       -1.8038     5.1502    34.2180 H         21 DG      0.0000
   1306 P          3.1279     9.9557    37.9545 P.3       22 DT      0.0000
   1307 OP1        3.2128    11.3704    38.4662 O.co2     22 DT      0.0000
   1308 OP2        4.0650     9.1506    38.8732 O.co2     22 DT      0.0000
   1309 O5'        1.7159     9.3169    37.9831 O.3       22 DT      0.0000
   1310 C5'        0.4918    10.0884    37.8391 C.3       22 DT      0.0000
   1311 C4'       -0.6173     9.0589    37.8966 C.3       22 DT      0.0000
   1312 O4'       -0.1504     7.7565    37.6214 O.3       22 DT      0.0000
   1313 C3'       -1.3484     8.9334    39.2093 C.3       22 DT      0.0000
   1314 O3'       -2.7112     9.3423    39.0211 O.3       22 DT      0.0000
   1315 C2'       -1.2531     7.4591    39.6016 C.3       22 DT      0.0000
   1316 C1'       -1.0746     6.8204    38.2488 C.3       22 DT      0.0000
   1317 N1        -0.3912     5.5304    38.3454 N.am      22 DT      0.0000
   1318 C2        -1.1416     4.4031    38.1475 C.2       22 DT      0.0000
   1319 O2        -2.3464     4.4458    37.9093 O.2       22 DT      0.0000
   1320 N3        -0.4931     3.2003    38.2286 N.am      22 DT      0.0000
   1321 C4         0.8306     3.0947    38.4845 C.2       22 DT      0.0000
   1322 O4         1.2857     1.9219    38.5298 O.2       22 DT      0.0000
   1323 C5         1.6002     4.2855    38.6842 C.2       22 DT      0.0000
   1324 C7         3.0662     4.2126    38.9641 C.3       22 DT      0.0000
   1325 C6         0.9577     5.4576    38.6027 C.2       22 DT      0.0000
   1326 H5'        0.3921    10.8071    38.6525 H         22 DT      0.0000
   1327 H5''       0.4803    10.6023    36.8779 H         22 DT      0.0000
   1328 H4'       -1.3500     9.3172    37.1321 H         22 DT      0.0000
   1329 H3'       -0.8707     9.5552    39.9664 H         22 DT      0.0000
   1330 H2'       -0.3977     7.2709    40.2504 H         22 DT      0.0000
   1331 H2''      -2.1774     7.1221    40.0708 H         22 DT      0.0000
   1332 H1'       -2.0155     6.7458    37.7035 H         22 DT      0.0000
   1333 H3        -1.0270     2.3541    38.0911 H         22 DT      0.0000
   1334 H6         1.5149     6.3721    38.7431 H         22 DT      0.0000
   1335 H71        3.6220     4.4557    38.0585 H         22 DT      0.0000
   1336 H72        3.3240     3.2046    39.2888 H         22 DT      0.0000
   1337 H73        3.3219     4.9240    39.7494 H         22 DT      0.0000
   1338 P         -3.3184    10.1416    40.3011 P.3       23 DG      0.0000
   1339 OP1       -4.1930    11.1637    39.5860 O.co2     23 DG      0.0000
   1340 OP2       -2.2229    10.7250    41.0546 O.co2     23 DG      0.0000
   1341 O5'       -4.1427     8.8714    40.9106 O.3       23 DG      0.0000
   1342 C5'       -4.8745     8.1944    39.8200 C.3       23 DG      0.0000
   1343 C4'       -5.3383     6.8657    40.3400 C.3       23 DG      0.0000
   1344 O4'       -4.4653     5.7829    40.1595 O.3       23 DG      0.0000
   1345 C3'       -5.6867     6.9091    41.8481 C.3       23 DG      0.0000
   1346 O3'       -7.0379     6.4129    42.0069 O.3       23 DG      0.0000
   1347 C2'       -4.5897     6.0953    42.5006 C.3       23 DG      0.0000
   1348 C1'       -4.2809     5.0667    41.4191 C.3       23 DG      0.0000
   1349 N9        -2.9382     4.5000    41.5886 N.ar      23 DG      0.0000
   1350 C8        -1.7764     5.1384    41.9248 C.ar      23 DG      0.0000
   1351 N7        -0.7248     4.3536    42.0106 N.ar      23 DG      0.0000
   1352 C5        -1.2415     3.1028    41.6805 C.ar      23 DG      0.0000
   1353 C6        -0.6101     1.8296    41.5862 C.2       23 DG      0.0000
   1354 O6         0.5825     1.5498    41.7785 O.2       23 DG      0.0000
   1355 N1        -1.4573     0.7982    41.2512 N.am      23 DG      0.0000
   1356 C2        -2.7851     1.0001    41.0274 C.2       23 DG      0.0000
   1357 N2        -3.4558    -0.1175    40.7186 N.pl3     23 DG      0.0000
   1358 N3        -3.4197     2.1680    41.0984 N.2       23 DG      0.0000
   1359 C4        -2.5940     3.1769    41.4250 C.ar      23 DG      0.0000
   1360 H5'       -5.7326     8.7957    39.5195 H         23 DG      0.0000
   1361 H5''      -4.2117     8.0459    38.9676 H         23 DG      0.0000
   1362 H4'       -6.2587     6.6220    39.8095 H         23 DG      0.0000
   1363 H3'       -5.6345     7.9385    42.2028 H         23 DG      0.0000
   1364 H2'       -3.7181     6.7107    42.7236 H         23 DG      0.0000
   1365 H2''      -4.9573     5.6068    43.4031 H         23 DG      0.0000
   1366 H1'       -5.0136     4.2619    41.4780 H         23 DG      0.0000
   1367 H8        -1.7265     6.2020    42.1055 H         23 DG      0.0000
   1368 H1        -1.0830    -0.1363    41.1688 H         23 DG      0.0000
   1369 H21       -2.9691    -1.0010    40.6684 H         23 DG      0.0000
   1370 H22       -4.4484    -0.0766    40.5359 H         23 DG      0.0000
   1371 P         -7.7562     6.4252    43.3953 P.3       24 DA      0.0000
   1372 OP1       -8.5165     7.6617    43.7507 O.co2     24 DA      0.0000
   1373 OP2       -6.4638     6.3895    44.2911 O.co2     24 DA      0.0000
   1374 O5'       -8.4323     5.0126    43.6445 O.3       24 DA      0.0000
   1375 C5'       -8.8065     4.0848    42.6154 C.3       24 DA      0.0000
   1376 C4'       -8.2972     2.7333    43.0897 C.3       24 DA      0.0000
   1377 O4'       -6.8895     2.6791    42.9994 O.3       24 DA      0.0000
   1378 C3'       -8.6662     2.3348    44.5188 C.3       24 DA      0.0000
   1379 O3'       -9.1646     0.9821    44.5711 O.3       24 DA      0.0000
   1380 C2'       -7.3319     2.5104    45.2542 C.3       24 DA      0.0000
   1381 C1'       -6.3914     1.9926    44.1766 C.3       24 DA      0.0000
   1382 N9        -4.9843     2.3363    44.4051 N.ar      24 DA      0.0000
   1383 C8        -4.4014     3.5528    44.6208 C.ar      24 DA      0.0000
   1384 N7        -3.0985     3.4975    44.7858 N.ar      24 DA      0.0000
   1385 C5        -2.8025     2.1499    44.6456 C.ar      24 DA      0.0000
   1386 C6        -1.5762     1.4514    44.6935 C.ar      24 DA      0.0000
   1387 N6        -0.3899     2.0230    44.9133 N.pl3     24 DA      0.0000
   1388 N1        -1.6671     0.1015    44.5037 N.ar      24 DA      0.0000
   1389 C2        -2.8601    -0.4986    44.2860 C.ar      24 DA      0.0000
   1390 N3        -4.0523     0.0937    44.2277 N.ar      24 DA      0.0000
   1391 C4        -3.9439     1.4217    44.4146 C.ar      24 DA      0.0000
   1392 H5'       -8.3409     4.3571    41.6682 H         24 DA      0.0000
   1393 H5''      -9.8909     4.0607    42.5076 H         24 DA      0.0000
   1394 H4'       -8.7010     1.9740    42.4199 H         24 DA      0.0000
   1395 H3'       -9.4091     3.0240    44.9202 H         24 DA      0.0000
   1396 H2'       -7.1357     3.5541    45.4997 H         24 DA      0.0000
   1397 H2''      -7.2901     1.8838    46.1451 H         24 DA      0.0000
   1398 H1'       -6.5039     0.9145    44.0621 H         24 DA      0.0000
   1399 H8        -4.9605     4.4763    44.6529 H         24 DA      0.0000
   1400 H2        -2.8444    -1.5692    44.1446 H         24 DA      0.0000
   1401 H61       -0.1957     3.0094    44.8159 H         24 DA      0.0000
   1402 H62        0.4434     1.4787    44.7418 H         24 DA      0.0000
   1403 P        -10.2355     0.4836    45.7125 P.3       25 DA      0.0000
   1404 OP1      -11.5104     0.0307    45.0455 O.co2     25 DA      0.0000
   1405 OP2      -10.3527     1.6992    46.5434 O.co2     25 DA      0.0000
   1406 O5'       -9.5694    -0.8654    46.2434 O.3       25 DA      0.0000
   1407 C5'       -9.3304    -2.0049    45.4190 C.3       25 DA      0.0000
   1408 C4'       -8.0932    -2.7141    45.9413 C.3       25 DA      0.0000
   1409 O4'       -6.9891    -1.8543    45.9695 O.3       25 DA      0.0000
   1410 C3'       -8.1866    -3.3689    47.3086 C.3       25 DA      0.0000
   1411 O3'       -8.0268    -4.7852    47.2308 O.3       25 DA      0.0000
   1412 C2'       -7.1234    -2.6374    48.1374 C.3       25 DA      0.0000
   1413 C1'       -6.1561    -2.1225    47.1436 C.3       25 DA      0.0000
   1414 N9        -5.3971    -0.8875    47.4116 N.ar      25 DA      0.0000
   1415 C8        -5.8334     0.4102    47.5268 C.ar      25 DA      0.0000
   1416 N7        -4.8720     1.2867    47.6961 N.ar      25 DA      0.0000
   1417 C5        -3.7127     0.5185    47.6591 C.ar      25 DA      0.0000
   1418 C6        -2.3382     0.8707    47.7796 C.ar      25 DA      0.0000
   1419 N6        -1.8715     2.0983    47.9712 N.pl3     25 DA      0.0000
   1420 N1        -1.4487    -0.1699    47.6814 N.ar      25 DA      0.0000
   1421 C2        -1.8914    -1.4469    47.4923 C.ar      25 DA      0.0000
   1422 N3        -3.1543    -1.8434    47.3844 N.ar      25 DA      0.0000
   1423 C4        -4.0161    -0.8108    47.4763 C.ar      25 DA      0.0000
   1424 H5'       -9.1670    -1.6879    44.3890 H         25 DA      0.0000
   1425 H5''     -10.1866    -2.6779    45.4650 H         25 DA      0.0000
   1426 H4'       -7.8588    -3.5048    45.2286 H         25 DA      0.0000
   1427 H3'       -9.1674    -3.1522    47.7318 H         25 DA      0.0000
   1428 H2'       -7.5713    -1.8167    48.6977 H         25 DA      0.0000
   1429 H2''      -6.6311    -3.3330    48.8170 H         25 DA      0.0000
   1430 H1'       -5.4524    -2.9177    46.8975 H         25 DA      0.0000
   1431 H8        -6.8769     0.6848    47.4820 H         25 DA      0.0000
   1432 H2        -1.1356    -2.2153    47.4231 H         25 DA      0.0000
   1433 H61       -2.4582     2.8530    48.2974 H         25 DA      0.0000
   1434 H62       -0.8965     2.2841    47.7844 H         25 DA      0.0000
   1435 P         -8.7652    -5.8736    48.1870 P.3       26 DT      0.0000
   1436 OP1       -9.2558    -7.0769    47.3897 O.co2     26 DT      0.0000
   1437 OP2       -9.7721    -5.2339    49.0076 O.co2     26 DT      0.0000
   1438 O5'       -7.4887    -6.5167    49.0007 O.3       26 DT      0.0000
   1439 C5'       -6.3482    -6.6919    48.0556 C.3       26 DT      0.0000
   1440 C4'       -5.1401    -6.2526    48.8434 C.3       26 DT      0.0000
   1441 O4'       -5.0657    -4.8578    49.0353 O.3       26 DT      0.0000
   1442 C3'       -5.1181    -6.8560    50.2599 C.3       26 DT      0.0000
   1443 O3'       -4.2777    -7.9952    50.2616 O.3       26 DT      0.0000
   1444 C2'       -4.6510    -5.7126    51.1572 C.3       26 DT      0.0000
   1445 C1'       -4.1305    -4.7233    50.1926 C.3       26 DT      0.0000
   1446 N1        -4.0887    -3.3099    50.5323 N.am      26 DT      0.0000
   1447 C2        -2.8297    -2.7336    50.6703 C.2       26 DT      0.0000
   1448 O2        -1.8278    -3.4317    50.5822 O.2       26 DT      0.0000
   1449 N3        -2.7575    -1.3973    50.9243 N.am      26 DT      0.0000
   1450 C4        -3.8655    -0.6083    51.0444 C.2       26 DT      0.0000
   1451 O4        -3.7152     0.6292    51.2996 O.2       26 DT      0.0000
   1452 C5        -5.1511    -1.2196    50.8728 C.2       26 DT      0.0000
   1453 C7        -6.4027    -0.3911    50.9604 C.3       26 DT      0.0000
   1454 C6        -5.2167    -2.5376    50.6171 C.2       26 DT      0.0000
   1455 H5'       -6.2538    -7.7351    47.7540 H         26 DT      0.0000
   1456 H5''      -6.4810    -6.0557    47.1806 H         26 DT      0.0000
   1457 H4'       -4.2444    -6.5779    48.3142 H         26 DT      0.0000
   1458 H3'       -6.1283    -7.1504    50.5443 H         26 DT      0.0000
   1459 H2'       -5.4814    -5.3007    51.7306 H         26 DT      0.0000
   1460 H2''      -3.8572    -6.0501    51.8236 H         26 DT      0.0000
   1461 H1'       -3.1355    -5.0354    49.8752 H         26 DT      0.0000
   1462 H3        -1.8470    -0.9726    51.0280 H         26 DT      0.0000
   1463 H6        -6.1828    -2.9990    50.4749 H         26 DT      0.0000
   1464 H71       -6.1392     0.6449    51.1734 H         26 DT      0.0000
   1465 H72       -6.9387    -0.4419    50.0126 H         26 DT      0.0000
   1466 H73       -7.0381    -0.7758    51.7582 H         26 DT      0.0000
   1467 P         -4.0855    -9.0667    51.3682 P.3       27 DT      0.0000
   1468 OP1       -3.5427   -10.3840    50.7562 O.co2     27 DT      0.0000
   1469 OP2       -5.4172    -9.2588    51.9982 O.co2     27 DT      0.0000
   1470 O5'       -2.8639    -8.5180    52.2506 O.3       27 DT      0.0000
   1471 C5'       -1.5985    -8.5724    51.5388 C.3       27 DT      0.0000
   1472 C4'       -0.6308    -7.6645    52.2150 C.3       27 DT      0.0000
   1473 O4'       -1.0151    -6.2954    52.1916 O.3       27 DT      0.0000
   1474 C3'       -0.3467    -8.0193    53.6816 C.3       27 DT      0.0000
   1475 O3'        1.0407    -7.9315    53.9456 O.3       27 DT      0.0000
   1476 C2'       -1.0928    -6.8813    54.4179 C.3       27 DT      0.0000
   1477 C1'       -0.6616    -5.7440    53.5144 C.3       27 DT      0.0000
   1478 N1        -1.4008    -4.5312    53.8121 N.am      27 DT      0.0000
   1479 C2        -0.7089    -3.3322    53.8669 C.2       27 DT      0.0000
   1480 O2         0.5085    -3.3372    53.6784 O.2       27 DT      0.0000
   1481 N3        -1.4127    -2.1914    54.1328 N.am      27 DT      0.0000
   1482 C4        -2.7579    -2.2005    54.3398 C.2       27 DT      0.0000
   1483 O4        -3.3445    -1.1030    54.5631 O.2       27 DT      0.0000
   1484 C5        -3.4601    -3.4392    54.2747 C.2       27 DT      0.0000
   1485 C7        -4.9435    -3.5304    54.4846 C.3       27 DT      0.0000
   1486 C6        -2.7533    -4.5498    54.0136 C.2       27 DT      0.0000
   1487 H5'       -1.2144    -9.5925    51.5512 H         27 DT      0.0000
   1488 H5''      -1.7445    -8.2492    50.5081 H         27 DT      0.0000
   1489 H4'        0.3136    -7.7427    51.6765 H         27 DT      0.0000
   1490 H3'       -0.7459    -8.9990    53.9440 H         27 DT      0.0000
   1491 H2'       -2.1732    -7.0251    54.4167 H         27 DT      0.0000
   1492 H2''      -0.7121    -6.7486    55.4306 H         27 DT      0.0000
   1493 H1'        0.4122    -5.5732    53.5900 H         27 DT      0.0000
   1494 H3        -0.9179    -1.3120    54.1772 H         27 DT      0.0000
   1495 H6        -3.2729    -5.4951    53.9605 H         27 DT      0.0000
   1496 H71       -5.3446    -2.5366    54.6836 H         27 DT      0.0000
   1497 H72       -5.4124    -3.9386    53.5894 H         27 DT      0.0000
   1498 H73       -5.1510    -4.1824    55.3330 H         27 DT      0.0000
   1499 P          2.1416    -8.8703    54.5536 P.3       28 DC      0.0000
   1500 OP1        3.0976    -9.3661    53.4856 O.co2     28 DC      0.0000
   1501 OP2        1.4025    -9.9130    55.2885 O.co2     28 DC      0.0000
   1502 O5'        2.9346    -7.7089    55.3796 O.3       28 DC      0.0000
   1503 C5'        3.2011    -6.6797    54.3573 C.3       28 DC      0.0000
   1504 C4'        3.8723    -5.5303    55.0538 C.3       28 DC      0.0000
   1505 O4'        3.0017    -4.4699    55.3008 O.3       28 DC      0.0000
   1506 C3'        4.5978    -5.8907    56.3453 C.3       28 DC      0.0000
   1507 O3'        5.9649    -5.5092    56.2656 O.3       28 DC      0.0000
   1508 C2'        3.7158    -5.2098    57.3941 C.3       28 DC      0.0000
   1509 C1'        3.1355    -4.0432    56.6976 C.3       28 DC      0.0000
   1510 N1         1.7524    -3.6872    57.0298 N.am      28 DC      0.0000
   1511 C2         1.5160    -2.3383    57.2856 C.2       28 DC      0.0000
   1512 O2         2.4355    -1.5141    57.2900 O.2       28 DC      0.0000
   1513 N3         0.2238    -1.9634    57.5594 N.2       28 DC      0.0000
   1514 C4        -0.7974    -2.8675    57.5495 C.2       28 DC      0.0000
   1515 N4        -2.0124    -2.4074    57.8263 N.pl3     28 DC      0.0000
   1516 C5        -0.5451    -4.2290    57.2715 C.2       28 DC      0.0000
   1517 C6         0.7297    -4.5817    57.0067 C.2       28 DC      0.0000
   1518 H5'        3.8554    -7.0816    53.5837 H         28 DC      0.0000
   1519 H5''       2.2631    -6.3470    53.9131 H         28 DC      0.0000
   1520 H4'        4.6311    -5.1538    54.3679 H         28 DC      0.0000
   1521 H3'        4.5430    -6.9698    56.4886 H         28 DC      0.0000
   1522 H2'        2.9299    -5.8853    57.7320 H         28 DC      0.0000
   1523 H2''       4.3203    -4.8817    58.2396 H         28 DC      0.0000
   1524 H1'        3.7908    -3.1759    56.7786 H         28 DC      0.0000
   1525 H5        -1.3412    -4.9588    57.2709 H         28 DC      0.0000
   1526 H6         0.9454    -5.6126    56.7676 H         28 DC      0.0000
   1527 H41       -2.1477    -1.4265    58.0255 H         28 DC      0.0000
   1528 H42       -2.8009    -3.0384    57.8376 H         28 DC      0.0000
   1529 P          7.1677    -6.0386    57.2177 P.3       29 DA      0.0000
   1530 OP1        8.4530    -5.9045    56.4239 O.co2     29 DA      0.0000
   1531 OP2        6.8838    -7.4464    57.5632 O.co2     29 DA      0.0000
   1532 O5'        7.1216    -5.0268    58.5147 O.3       29 DA      0.0000
   1533 C5'        7.1544    -3.5968    58.2195 C.3       29 DA      0.0000
   1534 C4'        7.0060    -2.8013    59.4747 C.3       29 DA      0.0000
   1535 O4'        5.6922    -2.2889    59.7169 O.3       29 DA      0.0000
   1536 C3'        7.3047    -3.5576    60.7800 C.3       29 DA      0.0000
   1537 O3'        7.5682    -2.6021    61.8099 O.3       29 DA      0.0000
   1538 C2'        5.9364    -4.2348    60.9946 C.3       29 DA      0.0000
   1539 C1'        5.0865    -2.9728    60.8113 C.3       29 DA      0.0000
   1540 N9         3.6860    -3.3486    60.7170 N.ar      29 DA      0.0000
   1541 C8         3.0998    -4.5785    60.6011 C.ar      29 DA      0.0000
   1542 N7         1.7790    -4.5675    60.5825 N.ar      29 DA      0.0000
   1543 C5         1.4725    -3.2183    60.6901 C.ar      29 DA      0.0000
   1544 C6         0.2373    -2.5254    60.7246 C.ar      29 DA      0.0000
   1545 N6        -0.9478    -3.1023    60.6393 N.pl3     29 DA      0.0000
   1546 N1         0.3125    -1.1684    60.8572 N.ar      29 DA      0.0000
   1547 C2         1.5207    -0.5285    60.9373 C.ar      29 DA      0.0000
   1548 N3         2.7185    -1.1080    60.9075 N.ar      29 DA      0.0000
   1549 C4         2.6247    -2.4547    60.7845 C.ar      29 DA      0.0000
   1550 H5'        8.1057    -3.3495    57.7483 H         29 DA      0.0000
   1551 H5''       6.3399    -3.3506    57.5382 H         29 DA      0.0000
   1552 H4'        7.6891    -1.9540    59.4158 H         29 DA      0.0000
   1553 H3'        8.1130    -4.2800    60.6663 H         29 DA      0.0000
   1554 H2'        5.7234    -4.9957    60.2438 H         29 DA      0.0000
   1555 H2''       5.8435    -4.6344    62.0045 H         29 DA      0.0000
   1556 H1'        5.2083    -2.3550    61.7009 H         29 DA      0.0000
   1557 H8         3.6736    -5.4907    60.5301 H         29 DA      0.0000
   1558 H2         1.4995     0.5470    61.0338 H         29 DA      0.0000
   1559 H61       -1.8936    -2.7970    60.8194 H         29 DA      0.0000
   1560 H62       -0.8971    -4.0607    60.3246 H         29 DA      0.0000
   1561 P          8.9995    -1.9005    61.9504 P.3       30 DC      0.0000
   1562 OP1        9.8151    -1.9752    60.7053 O.co2     30 DC      0.0000
   1563 OP2        9.6127    -2.6568    63.0932 O.co2     30 DC      0.0000
   1564 O5'        8.6354    -0.3833    62.2335 O.3       30 DC      0.0000
   1565 C5'        8.3004     0.5307    61.1458 C.3       30 DC      0.0000
   1566 C4'        7.3612     1.5159    61.8508 C.3       30 DC      0.0000
   1567 O4'        6.1777     0.8183    62.1627 O.3       30 DC      0.0000
   1568 C3'        7.9180     2.0674    63.1607 C.3       30 DC      0.0000
   1569 O3'        7.8718     3.5106    63.2286 O.3       30 DC      0.0000
   1570 C2'        7.0710     1.3809    64.2429 C.3       30 DC      0.0000
   1571 C1'        5.7726     1.2014    63.5667 C.3       30 DC      0.0000
   1572 N1         4.8742     0.1052    63.9195 N.am      30 DC      0.0000
   1573 C2         3.5169     0.4200    63.8926 C.2       30 DC      0.0000
   1574 O2         3.1050     1.5545    63.6857 O.2       30 DC      0.0000
   1575 N3         2.6370    -0.5858    64.1457 N.2       30 DC      0.0000
   1576 C4         3.0355    -1.8597    64.3791 C.2       30 DC      0.0000
   1577 N4         2.0796    -2.7577    64.6100 N.pl3     30 DC      0.0000
   1578 C5         4.4230    -2.1713    64.3857 C.2       30 DC      0.0000
   1579 C6         5.2853    -1.1736    64.1362 C.2       30 DC      0.0000
   1580 H5'        9.1878     1.0332    60.7610 H         30 DC      0.0000
   1581 H5''       7.7781     0.0045    60.3468 H         30 DC      0.0000
   1582 H4'        7.1295     2.3417    61.1781 H         30 DC      0.0000
   1583 H3'        8.9534     1.7435    63.2666 H         30 DC      0.0000
   1584 H2'        7.5014     0.4214    64.5299 H         30 DC      0.0000
   1585 H2''       6.9635     2.0283    65.1131 H         30 DC      0.0000
   1586 H1'        5.2250     2.1438    63.5534 H         30 DC      0.0000
   1587 H5         4.7702    -3.1745    64.5842 H         30 DC      0.0000
   1588 H6         6.3422    -1.3935    64.1065 H         30 DC      0.0000
   1589 H41        1.1095    -2.4767    64.5990 H         30 DC      0.0000
   1590 H42        2.3247    -3.7196    64.7962 H         30 DC      0.0000
   1591 P         -8.2046    -2.1752    66.1881 P.3       30 DG      0.0000
   1592 OP1       -9.6213    -2.6200    66.3668 O.co2     30 DG      0.0000
   1593 OP2       -7.4685    -2.9503    65.1033 O.co2     30 DG      0.0000
   1594 O5'       -8.1672    -0.5427    65.9808 O.3       30 DG      0.0000
   1595 C5'       -7.6879     0.3055    67.0766 C.3       30 DG      0.0000
   1596 C4'       -6.8868     1.4401    66.4423 C.3       30 DG      0.0000
   1597 O4'       -5.5232     1.1304    66.3465 O.3       30 DG      0.0000
   1598 C3'       -7.3395     1.8237    65.0360 C.3       30 DG      0.0000
   1599 O3'       -7.3194     3.2451    64.7690 O.3       30 DG      0.0000
   1600 C2'       -6.3486     1.0663    64.1337 C.3       30 DG      0.0000
   1601 C1'       -5.0760     1.1722    64.9575 C.3       30 DG      0.0000
   1602 N9        -4.1718     0.0422    64.6842 N.ar      30 DG      0.0000
   1603 C8        -4.4995    -1.2837    64.5276 C.ar      30 DG      0.0000
   1604 N7        -3.4731    -2.0621    64.3092 N.ar      30 DG      0.0000
   1605 C5        -2.3891    -1.1925    64.3339 C.ar      30 DG      0.0000
   1606 C6        -0.9966    -1.4251    64.1775 C.2       30 DG      0.0000
   1607 O6        -0.4464    -2.5179    63.9807 O.2       30 DG      0.0000
   1608 N1        -0.2216    -0.2949    64.2644 N.am      30 DG      0.0000
   1609 C2        -0.7445     0.9361    64.4851 C.2       30 DG      0.0000
   1610 N2         0.1292     1.9371    64.5484 N.pl3     30 DG      0.0000
   1611 N3        -2.0454     1.2093    64.6428 N.2       30 DG      0.0000
   1612 C4        -2.8053     0.1000    64.5595 C.ar      30 DG      0.0000
   1613 H5'       -8.5327     0.7097    67.6344 H         30 DG      0.0000
   1614 H5''      -7.0476    -0.2741    67.7415 H         30 DG      0.0000
   1615 H4'       -6.9875     2.3190    67.0790 H         30 DG      0.0000
   1616 H3'       -8.3456     1.4405    64.8655 H         30 DG      0.0000
   1617 H2'       -6.6488     0.0283    63.9910 H         30 DG      0.0000
   1618 H2''      -6.2330     1.5718    63.1750 H         30 DG      0.0000
   1619 H1'       -4.5717     2.1165    64.7523 H         30 DG      0.0000
   1620 H8        -5.5144    -1.6491    64.5803 H         30 DG      0.0000
   1621 H1         0.7789    -0.3845    64.1596 H         30 DG      0.0000
   1622 H21        1.1158     1.7543    64.4333 H         30 DG      0.0000
   1623 H22       -0.1940     2.8800    64.7116 H         30 DG      0.0000
   1624 P         -7.0470     3.6608    63.2455 P.3       29 DT      0.0000
   1625 OP1       -7.6689     4.9743    62.8546 O.co2     29 DT      0.0000
   1626 OP2       -7.6998     2.5275    62.5450 O.co2     29 DT      0.0000
   1627 O5'       -5.4524     3.7468    63.1146 O.3       29 DT      0.0000
   1628 C5'       -4.8383     5.0479    63.3823 C.3       29 DT      0.0000
   1629 C4'       -3.5302     5.1242    62.6252 C.3       29 DT      0.0000
   1630 O4'       -2.8355     3.8901    62.5979 O.3       29 DT      0.0000
   1631 C3'       -3.7062     5.5315    61.1705 C.3       29 DT      0.0000
   1632 O3'       -2.6702     6.4073    60.6754 O.3       29 DT      0.0000
   1633 C2'       -3.7138     4.2028    60.4476 C.3       29 DT      0.0000
   1634 C1'       -2.6194     3.4912    61.2257 C.3       29 DT      0.0000
   1635 N1        -2.8620     2.0479    61.0744 N.am      29 DT      0.0000
   1636 C2        -1.7471     1.2228    61.1812 C.2       29 DT      0.0000
   1637 O2        -0.6345     1.7027    61.3710 O.2       29 DT      0.0000
   1638 N3        -1.9529    -0.1231    61.0610 N.am      29 DT      0.0000
   1639 C4        -3.1922    -0.6464    60.8435 C.2       29 DT      0.0000
   1640 O4        -3.2851    -1.9147    60.7459 O.2       29 DT      0.0000
   1641 C5        -4.3147     0.2237    60.7371 C.2       29 DT      0.0000
   1642 C7        -5.6867    -0.3426    60.5081 C.3       29 DT      0.0000
   1643 C6        -4.1078     1.5374    60.8589 C.2       29 DT      0.0000
   1644 H5'       -5.5034     5.8444    63.0485 H         29 DT      0.0000
   1645 H5''      -4.6499     5.1515    64.4509 H         29 DT      0.0000
   1646 H4'       -2.8952     5.8636    63.1132 H         29 DT      0.0000
   1647 H3'       -4.6755     6.0144    61.0465 H         29 DT      0.0000
   1648 H2'       -4.6741     3.6952    60.5392 H         29 DT      0.0000
   1649 H2''      -3.4339     4.3249    59.4013 H         29 DT      0.0000
   1650 H1'       -1.6265     3.7727    60.8751 H         29 DT      0.0000
   1651 H3        -1.1632    -0.7484    61.1357 H         29 DT      0.0000
   1652 H6        -4.9479     2.2120    60.7847 H         29 DT      0.0000
   1653 H71       -5.6252    -1.4287    60.4394 H         29 DT      0.0000
   1654 H72       -6.3363    -0.0676    61.3390 H         29 DT      0.0000
   1655 H73       -6.0947     0.0576    59.5800 H         29 DT      0.0000
   1656 P         -3.4240     7.6644    59.8970 P.3       28 DG      0.0000
   1657 OP1       -3.6389     8.8590    60.7682 O.co2     28 DG      0.0000
   1658 OP2       -4.6649     6.9583    59.4915 O.co2     28 DG      0.0000
   1659 O5'       -2.3104     8.0469    58.8162 O.3       28 DG      0.0000
   1660 C5'       -1.1637     8.8272    59.2397 C.3       28 DG      0.0000
   1661 C4'        0.0458     8.0163    58.7919 C.3       28 DG      0.0000
   1662 O4'       -0.1740     6.6464    59.0626 O.3       28 DG      0.0000
   1663 C3'        0.3739     8.1427    57.3042 C.3       28 DG      0.0000
   1664 O3'        1.7051     8.5793    57.0957 O.3       28 DG      0.0000
   1665 C2'        0.0349     6.7797    56.7275 C.3       28 DG      0.0000
   1666 C1'        0.2136     5.8617    57.9136 C.3       28 DG      0.0000
   1667 N9        -0.6370     4.6749    57.7901 N.ar      28 DG      0.0000
   1668 C8        -1.9926     4.6158    57.6312 C.ar      28 DG      0.0000
   1669 N7        -2.4620     3.3945    57.5531 N.ar      28 DG      0.0000
   1670 C5        -1.3348     2.5896    57.6907 C.ar      28 DG      0.0000
   1671 C6        -1.1737     1.1790    57.7001 C.2       28 DG      0.0000
   1672 O6        -2.0558     0.3321    57.6011 O.2       28 DG      0.0000
   1673 N1         0.1163     0.7552    57.8491 N.am      28 DG      0.0000
   1674 C2         1.1631     1.6351    57.9820 C.2       28 DG      0.0000
   1675 N2         2.3710     1.0869    58.1176 N.pl3     28 DG      0.0000
   1676 N3         1.0808     2.9694    57.9863 N.2       28 DG      0.0000
   1677 C4        -0.2033     3.3744    57.8356 C.ar      28 DG      0.0000
   1678 H5'       -1.1678     9.8065    58.7609 H         28 DG      0.0000
   1679 H5''      -1.1629     8.9379    60.3240 H         28 DG      0.0000
   1680 H4'        0.9125     8.3458    59.3649 H         28 DG      0.0000
   1681 H3'       -0.3006     8.8780    56.8656 H         28 DG      0.0000
   1682 H2'       -0.9913     6.7525    56.3611 H         28 DG      0.0000
   1683 H2''       0.7321     6.5167    55.9319 H         28 DG      0.0000
   1684 H1'        1.2586     5.5641    58.0007 H         28 DG      0.0000
   1685 H8        -2.6192     5.4937    57.5751 H         28 DG      0.0000
   1686 H1         0.3067    -0.2366    57.8620 H         28 DG      0.0000
   1687 H21        2.4723     0.0820    58.1186 H         28 DG      0.0000
   1688 H22        3.1846     1.6766    58.2194 H         28 DG      0.0000
   1689 P          2.9259     8.0730    56.2294 P.3       27 DA      0.0000
   1690 OP1        4.2348     8.2440    57.0107 O.co2     27 DA      0.0000
   1691 OP2        2.9273     8.9231    55.0367 O.co2     27 DA      0.0000
   1692 O5'        2.7241     6.4659    56.0546 O.3       27 DA      0.0000
   1693 C5'        3.2623     5.7214    57.2110 C.3       27 DA      0.0000
   1694 C4'        4.3787     4.8546    56.6832 C.3       27 DA      0.0000
   1695 O4'        3.9706     3.5286    56.4610 O.3       27 DA      0.0000
   1696 C3'        4.9279     5.3412    55.3427 C.3       27 DA      0.0000
   1697 O3'        6.3304     5.2489    55.2675 O.3       27 DA      0.0000
   1698 C2'        4.1130     4.5364    54.3462 C.3       27 DA      0.0000
   1699 C1'        3.6539     3.3016    55.0700 C.3       27 DA      0.0000
   1700 N9         2.2221     3.0398    54.8445 N.ar      27 DA      0.0000
   1701 C8         1.1957     3.9404    54.6581 C.ar      27 DA      0.0000
   1702 N7         0.0202     3.3889    54.4622 N.ar      27 DA      0.0000
   1703 C5         0.2888     2.0286    54.5491 C.ar      27 DA      0.0000
   1704 C6        -0.5564     0.8993    54.4435 C.ar      27 DA      0.0000
   1705 N6        -1.8585     0.9726    54.2310 N.pl3     27 DA      0.0000
   1706 N1         0.0481    -0.3145    54.5672 N.ar      27 DA      0.0000
   1707 C2         1.3912    -0.4203    54.7917 C.ar      27 DA      0.0000
   1708 N3         2.2393     0.5995    54.9076 N.ar      27 DA      0.0000
   1709 C4         1.6269     1.8005    54.7715 C.ar      27 DA      0.0000
   1710 H5'        3.6463     6.4149    57.9591 H         27 DA      0.0000
   1711 H5''       2.4822     5.0979    57.6477 H         27 DA      0.0000
   1712 H4'        5.1902     4.8513    57.4109 H         27 DA      0.0000
   1713 H3'        4.6545     6.3903    55.2296 H         27 DA      0.0000
   1714 H2'        4.7289     4.2636    53.4893 H         27 DA      0.0000
   1715 H2''       3.2512     5.1162    54.0156 H         27 DA      0.0000
   1716 H1'        4.2294     2.4481    54.7118 H         27 DA      0.0000
   1717 H8         1.3456     5.0099    54.6720 H         27 DA      0.0000
   1718 H2         1.8000    -1.4158    54.8830 H         27 DA      0.0000
   1719 H61       -2.4812     0.2426    54.5464 H         27 DA      0.0000
   1720 H62       -2.2377     1.7725    53.7448 H         27 DA      0.0000
   1721 P          7.2891     4.8313    54.0830 P.3       26 DA      0.0000
   1722 OP1        8.7429     4.6332    54.6029 O.co2     26 DA      0.0000
   1723 OP2        7.2618     6.0000    53.1493 O.co2     26 DA      0.0000
   1724 O5'        6.8255     3.4120    53.5803 O.3       26 DA      0.0000
   1725 C5'        7.5104     2.2269    54.0361 C.3       26 DA      0.0000
   1726 C4'        6.8701     1.0492    53.3342 C.3       26 DA      0.0000
   1727 O4'        5.4790     1.1379    53.2134 O.3       26 DA      0.0000
   1728 C3'        7.4144     0.8094    51.9266 C.3       26 DA      0.0000
   1729 O3'        8.1270    -0.4417    51.8952 O.3       26 DA      0.0000
   1730 C2'        6.1876     0.9704    51.0271 C.3       26 DA      0.0000
   1731 C1'        5.0511     0.5851    51.9249 C.3       26 DA      0.0000
   1732 N9         3.7537     1.1820    51.6253 N.ar      26 DA      0.0000
   1733 C8         3.4266     2.5081    51.4305 C.ar      26 DA      0.0000
   1734 N7         2.1448     2.7134    51.2251 N.ar      26 DA      0.0000
   1735 C5         1.5845     1.4531    51.2996 C.ar      26 DA      0.0000
   1736 C6         0.2516     1.0038    51.1661 C.ar      26 DA      0.0000
   1737 N6        -0.7797     1.8069    50.9230 N.pl3     26 DA      0.0000
   1738 N1         0.0732    -0.3482    51.3150 N.ar      26 DA      0.0000
   1739 C2         1.0977    -1.1855    51.5675 C.ar      26 DA      0.0000
   1740 N3         2.3795    -0.8336    51.7064 N.ar      26 DA      0.0000
   1741 C4         2.5520     0.4989    51.5591 C.ar      26 DA      0.0000
   1742 H5'        8.5685     2.2846    53.7810 H         26 DA      0.0000
   1743 H5''       7.3942     2.1234    55.1149 H         26 DA      0.0000
   1744 H4'        7.0897     0.1595    53.9243 H         26 DA      0.0000
   1745 H3'        8.1173     1.6086    51.6916 H         26 DA      0.0000
   1746 H2'        6.0849     2.0009    50.6872 H         26 DA      0.0000
   1747 H2''       6.2476     0.2923    50.1758 H         26 DA      0.0000
   1748 H1'        4.9656    -0.4998    51.9860 H         26 DA      0.0000
   1749 H8         4.1565     3.3040    51.4455 H         26 DA      0.0000
   1750 H2         0.8622    -2.2349    51.6666 H         26 DA      0.0000
   1751 H61       -1.6795     1.4548    51.2170 H         26 DA      0.0000
   1752 H62       -0.6710     2.7059    50.4757 H         26 DA      0.0000
   1753 P          8.7883    -0.9280    50.5102 P.3       25 DT      0.0000
   1754 OP1        9.7788    -2.0499    50.5684 O.co2     25 DT      0.0000
   1755 OP2        9.3211     0.3713    49.9976 O.co2     25 DT      0.0000
   1756 O5'        7.4134    -1.5548    49.8071 O.3       25 DT      0.0000
   1757 C5'        6.6567    -2.2851    50.8194 C.3       25 DT      0.0000
   1758 C4'        5.7636    -3.2709    50.1365 C.3       25 DT      0.0000
   1759 O4'        4.4580    -2.8098    49.9560 O.3       25 DT      0.0000
   1760 C3'        6.2657    -3.7268    48.7752 C.3       25 DT      0.0000
   1761 O3'        5.9936    -5.1080    48.5079 O.3       25 DT      0.0000
   1762 C2'        5.5166    -2.7295    47.8819 C.3       25 DT      0.0000
   1763 C1'        4.1449    -2.7153    48.5219 C.3       25 DT      0.0000
   1764 N1         3.4605    -1.4290    48.2919 N.am      25 DT      0.0000
   1765 C2         2.0823    -1.4511    48.1703 C.2       25 DT      0.0000
   1766 O2         1.4565    -2.5117    48.2071 O.2       25 DT      0.0000
   1767 N3         1.4333    -0.2580    48.0029 N.am      25 DT      0.0000
   1768 C4         2.1032     0.9246    47.9544 C.2       25 DT      0.0000
   1769 O4         1.4238     1.9781    47.7689 O.2       25 DT      0.0000
   1770 C5         3.5185     0.9273    48.1028 C.2       25 DT      0.0000
   1771 C7         4.2956     2.2211    48.0507 C.3       25 DT      0.0000
   1772 C6         4.1369    -0.2456    48.2758 C.2       25 DT      0.0000
   1773 H5'        7.3443    -2.8114    51.4815 H         25 DT      0.0000
   1774 H5''       6.0537    -1.5865    51.3994 H         25 DT      0.0000
   1775 H4'        5.7096    -4.1537    50.7735 H         25 DT      0.0000
   1776 H3'        7.3382    -3.5462    48.7032 H         25 DT      0.0000
   1777 H2'        5.9795    -1.7432    47.9125 H         25 DT      0.0000
   1778 H2''       5.4600    -3.0970    46.8573 H         25 DT      0.0000
   1779 H1'        3.5382    -3.5571    48.1879 H         25 DT      0.0000
   1780 H3         0.4273    -0.2555    47.9127 H         25 DT      0.0000
   1781 H6         5.2089    -0.2556    48.4071 H         25 DT      0.0000
   1782 H71        4.6907     2.3680    47.0455 H         25 DT      0.0000
   1783 H72        5.1203     2.1782    48.7622 H         25 DT      0.0000
   1784 H73        3.6372     3.0510    48.3072 H         25 DT      0.0000
   1785 P          6.4129    -5.6360    47.0180 P.3       24 DT      0.0000
   1786 OP1        7.5444    -6.6550    47.1660 O.co2     24 DT      0.0000
   1787 OP2        6.9332    -4.3966    46.3482 O.co2     24 DT      0.0000
   1788 O5'        5.1493    -6.2532    46.3659 O.3       24 DT      0.0000
   1789 C5'        4.1061    -6.8739    47.1173 C.3       24 DT      0.0000
   1790 C4'        2.8232    -6.7010    46.3694 C.3       24 DT      0.0000
   1791 O4'        2.2497    -5.4228    46.3124 O.3       24 DT      0.0000
   1792 C3'        2.7827    -7.1839    44.9033 C.3       24 DT      0.0000
   1793 O3'        1.4366    -7.6578    44.7995 O.3       24 DT      0.0000
   1794 C2'        2.9913    -5.8695    44.1395 C.3       24 DT      0.0000
   1795 C1'        1.9870    -5.0419    44.9153 C.3       24 DT      0.0000
   1796 N1         2.1383    -3.5879    44.8091 N.am      24 DT      0.0000
   1797 C2         0.9420    -2.8580    44.8085 C.2       24 DT      0.0000
   1798 O2        -0.1506    -3.4273    44.8515 O.2       24 DT      0.0000
   1799 N3         1.0447    -1.4977    44.7550 N.am      24 DT      0.0000
   1800 C4         2.2426    -0.8498    44.6953 C.2       24 DT      0.0000
   1801 O4         2.2323     0.4165    44.6329 O.2       24 DT      0.0000
   1802 C5         3.4408    -1.6147    44.7035 C.2       24 DT      0.0000
   1803 C7         4.7788    -0.9079    44.6421 C.3       24 DT      0.0000
   1804 C6         3.3357    -2.9451    44.7700 C.2       24 DT      0.0000
   1805 H5'        4.3213    -7.9354    47.2396 H         24 DT      0.0000
   1806 H5''       4.0271    -6.4004    48.0959 H         24 DT      0.0000
   1807 H4'        2.0968    -7.3194    46.8966 H         24 DT      0.0000
   1808 H3'        3.5303    -7.9434    44.6746 H         24 DT      0.0000
   1809 H2'        2.7334    -5.9556    43.0840 H         24 DT      0.0000
   1810 H2''       4.0046    -5.4902    44.2712 H         24 DT      0.0000
   1811 H1'        0.9737    -5.3308    44.6363 H         24 DT      0.0000
   1812 H3         0.1973    -0.9482    44.7599 H         24 DT      0.0000
   1813 H6         4.2402    -3.5348    44.7937 H         24 DT      0.0000
   1814 H71        4.6194     0.1693    44.5933 H         24 DT      0.0000
   1815 H72        5.3219    -1.2351    43.7555 H         24 DT      0.0000
   1816 H73        5.3585    -1.1493    45.5331 H         24 DT      0.0000
   1817 P          0.8378    -8.5169    43.6533 P.3       23 DC      0.0000
   1818 OP1        0.0762    -9.6956    44.2625 O.co2     23 DC      0.0000
   1819 OP2        2.0083    -9.0248    42.8715 O.co2     23 DC      0.0000
   1820 O5'       -0.1227    -7.4283    42.9139 O.3       23 DC      0.0000
   1821 C5'       -1.3526    -7.0972    43.6384 C.3       23 DC      0.0000
   1822 C4'       -2.4011    -6.8382    42.5879 C.3       23 DC      0.0000
   1823 O4'       -2.5824    -5.4630    42.3426 O.3       23 DC      0.0000
   1824 C3'       -2.1282    -7.4734    41.2235 C.3       23 DC      0.0000
   1825 O3'       -3.2979    -7.8879    40.5142 O.3       23 DC      0.0000
   1826 C2'       -1.3422    -6.3477    40.5374 C.3       23 DC      0.0000
   1827 C1'       -2.0201    -5.0927    41.0839 C.3       23 DC      0.0000
   1828 N1        -0.9913    -4.0328    41.2017 N.am      23 DC      0.0000
   1829 C2        -1.4403    -2.7131    41.2190 C.2       23 DC      0.0000
   1830 O2        -2.6480    -2.4466    41.1503 O.2       23 DC      0.0000
   1831 N3        -0.4931    -1.7304    41.3222 N.2       23 DC      0.0000
   1832 C4         0.8344    -2.0113    41.3930 C.2       23 DC      0.0000
   1833 N4         1.7200    -1.0178    41.4949 N.pl3     23 DC      0.0000
   1834 C5         1.2659    -3.3669    41.3678 C.2       23 DC      0.0000
   1835 C6         0.3347    -4.3316    41.2742 C.2       23 DC      0.0000
   1836 H5'       -1.6525    -7.9301    44.2744 H         23 DC      0.0000
   1837 H5''      -1.2006    -6.2025    44.2423 H         23 DC      0.0000
   1838 H4'       -3.3461    -7.2370    42.9567 H         23 DC      0.0000
   1839 H3'       -1.4719    -8.3332    41.3577 H         23 DC      0.0000
   1840 H2'       -1.4362    -6.4058    39.4530 H         23 DC      0.0000
   1841 H2''      -0.2936    -6.3767    40.8333 H         23 DC      0.0000
   1842 H1'       -2.8093    -4.7708    40.4046 H         23 DC      0.0000
   1843 H5         2.3157    -3.6146    41.4226 H         23 DC      0.0000
   1844 H6         0.6451    -5.3659    41.2561 H         23 DC      0.0000
   1845 H41        1.4032    -0.0590    41.5156 H         23 DC      0.0000
   1846 H42        2.7069    -1.2249    41.5513 H         23 DC      0.0000
   1847 P         -3.5169    -7.8059    38.8822 P.3       22 DA      0.0000
   1848 OP1       -4.5696    -8.8210    38.4927 O.co2     22 DA      0.0000
   1849 OP2       -2.1654    -8.0575    38.3121 O.co2     22 DA      0.0000
   1850 O5'       -4.1461    -6.3481    38.7167 O.3       22 DA      0.0000
   1851 C5'       -5.5357    -6.1376    39.1821 C.3       22 DA      0.0000
   1852 C4'       -5.9845    -4.9813    38.3048 C.3       22 DA      0.0000
   1853 O4'       -5.1758    -3.8285    38.5721 O.3       22 DA      0.0000
   1854 C3'       -5.7967    -5.2465    36.8004 C.3       22 DA      0.0000
   1855 O3'       -6.5514    -4.3407    36.0114 O.3       22 DA      0.0000
   1856 C2'       -4.3285    -4.8220    36.6129 C.3       22 DA      0.0000
   1857 C1'       -4.4836    -3.4734    37.3676 C.3       22 DA      0.0000
   1858 N9        -3.1189    -2.9773    37.5130 N.ar      22 DA      0.0000
   1859 C8        -1.9744    -3.7394    37.5859 C.ar      22 DA      0.0000
   1860 N7        -0.8819    -3.0265    37.7005 N.ar      22 DA      0.0000
   1861 C5        -1.3514    -1.7009    37.6941 C.ar      22 DA      0.0000
   1862 C6        -0.6550    -0.4651    37.7941 C.ar      22 DA      0.0000
   1863 N6         0.6719    -0.3676    37.9169 N.pl3     22 DA      0.0000
   1864 N1        -1.4556     0.6367    37.7589 N.ar      22 DA      0.0000
   1865 C2        -2.8024     0.5382    37.6400 C.ar      22 DA      0.0000
   1866 N3        -3.5192    -0.5856    37.5486 N.ar      22 DA      0.0000
   1867 C4        -2.7189    -1.6655    37.5761 C.ar      22 DA      0.0000
   1868 H5'       -6.1486    -7.0234    39.0153 H         22 DA      0.0000
   1869 H5''      -5.5504    -5.8514    40.2337 H         22 DA      0.0000
   1870 H4'       -7.0301    -4.7509    38.5088 H         22 DA      0.0000
   1871 H3'       -5.9722    -6.2879    36.5308 H         22 DA      0.0000
   1872 H2'       -3.6245    -5.5006    37.0946 H         22 DA      0.0000
   1873 H2''      -4.0849    -4.6692    35.5616 H         22 DA      0.0000
   1874 H1'       -5.0799    -2.7760    36.7792 H         22 DA      0.0000
   1875 H8        -1.9774    -4.8189    37.5518 H         22 DA      0.0000
   1876 H2        -3.3542     1.4663    37.6168 H         22 DA      0.0000
   1877 H61        1.2395    -1.2027    37.9417 H         22 DA      0.0000
   1878 H62        1.1074     0.5411    37.9850 H         22 DA      0.0000
   1879 P         -7.5205    -4.8704    34.8704 P.3       21 DC      0.0000
   1880 OP1       -8.7797    -5.2098    35.6507 O.co2     21 DC      0.0000
   1881 OP2       -6.9660    -6.0188    34.1448 O.co2     21 DC      0.0000
   1882 O5'       -7.5903    -3.5486    33.8946 O.3       21 DC      0.0000
   1883 C5'       -7.9466    -2.2789    34.5636 C.3       21 DC      0.0000
   1884 C4'       -7.1658    -1.1639    33.9196 C.3       21 DC      0.0000
   1885 O4'       -5.9237    -0.8912    34.5567 O.3       21 DC      0.0000
   1886 C3'       -6.8386    -1.4382    32.4417 C.3       21 DC      0.0000
   1887 O3'       -6.8093    -0.2706    31.6304 O.3       21 DC      0.0000
   1888 C2'       -5.3816    -1.9818    32.6074 C.3       21 DC      0.0000
   1889 C1'       -4.9461    -0.7640    33.5030 C.3       21 DC      0.0000
   1890 N1        -3.5330    -0.9011    33.7409 N.am      21 DC      0.0000
   1891 C2        -2.8035     0.2334    34.0580 C.2       21 DC      0.0000
   1892 O2        -3.1817     1.4018    34.1985 O.2       21 DC      0.0000
   1893 N3        -1.4576     0.0960    34.2562 N.2       21 DC      0.0000
   1894 C4        -0.8278    -1.1126    34.1402 C.2       21 DC      0.0000
   1895 N4         0.4939    -1.2006    34.3563 N.pl3     21 DC      0.0000
   1896 C5        -1.5895    -2.2676    33.8106 C.2       21 DC      0.0000
   1897 C6        -2.9041    -2.1078    33.6189 C.2       21 DC      0.0000
   1898 H5'       -9.0147    -2.0918    34.4521 H         21 DC      0.0000
   1899 H5''      -7.6939    -2.3392    35.6222 H         21 DC      0.0000
   1900 H4'       -7.7722    -0.2594    33.9663 H         21 DC      0.0000
   1901 H3'       -7.5001    -2.1964    32.0227 H         21 DC      0.0000
   1902 H2'       -5.3324    -2.9400    33.1245 H         21 DC      0.0000
   1903 H2''      -4.8445    -2.0026    31.6592 H         21 DC      0.0000
   1904 H1'       -5.1277     0.1624    32.9581 H         21 DC      0.0000
   1905 H5        -1.1240    -3.2378    33.7185 H         21 DC      0.0000
   1906 H6        -3.4952    -2.9725    33.3556 H         21 DC      0.0000
   1907 H41        1.0225    -0.3743    34.5968 H         21 DC      0.0000
   1908 H42        0.9600    -2.0933    34.2784 H         21 DC      0.0000
   1909 P          8.1466     5.8323    68.2296 P.3       31 DG      0.0000
   1910 OP1        9.6186     6.0184    68.2281 O.co2     31 DG      0.0000
   1911 OP2        7.8365     4.7610    69.2853 O.co2     31 DG      0.0000
   1912 O5'        7.2570     7.1393    68.4080 O.3       31 DG      0.0000
   1913 C5'        6.5391     7.8930    67.4080 C.3       31 DG      0.0000
   1914 C4'        5.1259     8.1114    67.9068 C.3       31 DG      0.0000
   1915 O4'        4.2508     7.0867    67.4877 O.3       31 DG      0.0000
   1916 C3'        4.9182     8.2741    69.3990 C.3       31 DG      0.0000
   1917 O3'        4.2034     9.5001    69.7110 O.3       31 DG      0.0000
   1918 C2'        4.1741     7.0214    69.8209 C.3       31 DG      0.0000
   1919 C1'        3.4500     6.5998    68.5652 C.3       31 DG      0.0000
   1920 N9         3.3006     5.1335    68.5362 N.ar      31 DG      0.0000
   1921 C8         4.2405     4.1565    68.7651 C.ar      31 DG      0.0000
   1922 N7         3.7739     2.9315    68.6754 N.ar      31 DG      0.0000
   1923 C5         2.4300     3.1114    68.3583 C.ar      31 DG      0.0000
   1924 C6         1.3815     2.1859    68.1324 C.2       31 DG      0.0000
   1925 O6         1.4327     0.9558    68.1537 O.2       31 DG      0.0000
   1926 N1         0.1639     2.7425    67.8509 N.am      31 DG      0.0000
   1927 C2        -0.0310     4.0209    67.7903 C.2       31 DG      0.0000
   1928 N2        -1.2464     4.2733    67.4935 N.pl3     31 DG      0.0000
   1929 N3         0.9353     5.0102    67.9990 N.2       31 DG      0.0000
   1930 C4         2.1258     4.4571    68.2716 C.ar      31 DG      0.0000
   1931 H5'        7.0273     8.8546    67.2493 H         31 DG      0.0000
   1932 H5''       6.5162     7.3338    66.4726 H         31 DG      0.0000
   1933 H4'        4.7715     9.0315    67.4421 H         31 DG      0.0000
   1934 H3'        5.8897     8.2937    69.8930 H         31 DG      0.0000
   1935 H2'        4.8687     6.2477    70.1479 H         31 DG      0.0000
   1936 H2''       3.4608     7.2512    70.6124 H         31 DG      0.0000
   1937 H1'        2.4668     7.0696    68.5333 H         31 DG      0.0000
   1938 H8         5.2719     4.3767    68.9981 H         31 DG      0.0000
   1939 H1        -0.6193     2.1275    67.6825 H         31 DG      0.0000
   1940 H21       -1.8987     3.5158    67.3491 H         31 DG      0.0000
   1941 H22       -1.5560     5.2304    67.4030 H         31 DG      0.0000
   1942 P          3.5994     9.7951    71.1395 P.3       32 DT      0.0000
   1943 OP1        3.7516    11.2042    71.6512 O.co2     32 DT      0.0000
   1944 OP2        4.4969     8.9463    72.0582 O.co2     32 DT      0.0000
   1945 O5'        2.1584     9.2244    71.1681 O.3       32 DT      0.0000
   1946 C5'        0.9725    10.0535    71.0241 C.3       32 DT      0.0000
   1947 C4'       -0.1844     9.0780    71.0816 C.3       32 DT      0.0000
   1948 O4'        0.2198     7.7548    70.8065 O.3       32 DT      0.0000
   1949 C3'       -0.9206     8.9875    72.3944 C.3       32 DT      0.0000
   1950 O3'       -2.2623     9.4610    72.2061 O.3       32 DT      0.0000
   1951 C2'       -0.8958     7.5104    72.7866 C.3       32 DT      0.0000
   1952 C1'       -0.7480     6.8639    71.4338 C.3       32 DT      0.0000
   1953 N1        -0.1269     5.5427    71.5305 N.am      32 DT      0.0000
   1954 C2        -0.9302     4.4526    71.3326 C.2       32 DT      0.0000
   1955 O2        -2.1316     4.5527    71.0944 O.2       32 DT      0.0000
   1956 N3        -0.3398     3.2202    71.4136 N.am      32 DT      0.0000
   1957 C4         0.9773     3.0515    71.6695 C.2       32 DT      0.0000
   1958 O4         1.3759     1.8583    71.7148 O.2       32 DT      0.0000
   1959 C5         1.8029     4.2043    71.8692 C.2       32 DT      0.0000
   1960 C7         3.2636     4.0615    72.1491 C.3       32 DT      0.0000
   1961 C6         1.2169     5.4057    71.7877 C.2       32 DT      0.0000
   1962 H5'        0.9073    10.7761    71.8376 H         32 DT      0.0000
   1963 H5''       0.9856    10.5673    70.0629 H         32 DT      0.0000
   1964 H4'       -0.9039     9.3710    70.3171 H         32 DT      0.0000
   1965 H3'       -0.4138     9.5859    73.1515 H         32 DT      0.0000
   1966 H2'       -0.0503     7.2816    73.4354 H         32 DT      0.0000
   1967 H2''      -1.8352     7.2179    73.2558 H         32 DT      0.0000
   1968 H1'       -1.6913     6.8343    70.8885 H         32 DT      0.0000
   1969 H3        -0.9135     2.4004    71.2761 H         32 DT      0.0000
   1970 H6         1.8172     6.2926    71.9281 H         32 DT      0.0000
   1971 H71        3.8305     4.2778    71.2436 H         32 DT      0.0000
   1972 H72        3.4731     3.0424    72.4739 H         32 DT      0.0000
   1973 H73        3.5531     4.7599    72.9344 H         32 DT      0.0000
   1974 P         -2.8308    10.2884    73.4861 P.3       33 DG      0.0000
   1975 OP1       -3.6556    11.3510    72.7710 O.co2     33 DG      0.0000
   1976 OP2       -1.7087    10.8188    74.2396 O.co2     33 DG      0.0000
   1977 O5'       -3.7147     9.0590    74.0956 O.3       33 DG      0.0000
   1978 C5'       -4.4780     8.4177    73.0050 C.3       33 DG      0.0000
   1979 C4'       -5.0047     7.1126    73.5251 C.3       33 DG      0.0000
   1980 O4'       -4.1843     5.9893    73.3445 O.3       33 DG      0.0000
   1981 C3'       -5.3506     7.1726    75.0331 C.3       33 DG      0.0000
   1982 O3'       -6.7240     6.7414    75.1920 O.3       33 DG      0.0000
   1983 C2'       -4.2936     6.3073    75.6857 C.3       33 DG      0.0000
   1984 C1'       -4.0343     5.2651    74.6041 C.3       33 DG      0.0000
   1985 N9        -2.7202     4.6351    74.7737 N.ar      33 DG      0.0000
   1986 C8        -1.5292     5.2173    75.1099 C.ar      33 DG      0.0000
   1987 N7        -0.5163     4.3832    75.1956 N.ar      33 DG      0.0000
   1988 C5        -1.0921     3.1585    74.8656 C.ar      33 DG      0.0000
   1989 C6        -0.5221     1.8566    74.7712 C.2       33 DG      0.0000
   1990 O6         0.6558     1.5202    74.9636 O.2       33 DG      0.0000
   1991 N1        -1.4176     0.8668    74.4362 N.am      33 DG      0.0000
   1992 C2        -2.7342     1.1318    74.2124 C.2       33 DG      0.0000
   1993 N2        -3.4575     0.0475    73.9036 N.pl3     33 DG      0.0000
   1994 N3        -3.3124     2.3287    74.2835 N.2       33 DG      0.0000
   1995 C4        -2.4395     3.2971    74.6100 C.ar      33 DG      0.0000
   1996 H5'       -5.3064     9.0592    72.7045 H         33 DG      0.0000
   1997 H5''      -3.8230     8.2376    72.1526 H         33 DG      0.0000
   1998 H4'       -5.9357     6.9130    72.9945 H         33 DG      0.0000
   1999 H3'       -5.2493     8.1982    75.3879 H         33 DG      0.0000
   2000 H2'       -3.3937     6.8804    75.9086 H         33 DG      0.0000
   2001 H2''      -4.6842     5.8369    76.5881 H         33 DG      0.0000
   2002 H1'       -4.8046     4.4962    74.6631 H         33 DG      0.0000
   2003 H8        -1.4286     6.2773    75.2905 H         33 DG      0.0000
   2004 H1        -1.0883    -0.0845    74.3539 H         33 DG      0.0000
   2005 H21       -3.0134    -0.8582    73.8534 H         33 DG      0.0000
   2006 H22       -4.4469     0.1357    73.7209 H         33 DG      0.0000
   2007 P         -7.4408     6.7879    76.5804 P.3       34 DA      0.0000
   2008 OP1       -8.1412     8.0593    76.9357 O.co2     34 DA      0.0000
   2009 OP2       -6.1516     6.6906    77.4761 O.co2     34 DA      0.0000
   2010 O5'       -8.1836     5.4092    76.8295 O.3       34 DA      0.0000
   2011 C5'       -8.6016     4.5003    75.8005 C.3       34 DA      0.0000
   2012 C4'       -8.1573     3.1261    76.2748 C.3       34 DA      0.0000
   2013 O4'       -6.7539     3.0047    76.1844 O.3       34 DA      0.0000
   2014 C3'       -8.5449     2.7456    77.7038 C.3       34 DA      0.0000
   2015 O3'       -9.1074     1.4183    77.7561 O.3       34 DA      0.0000
   2016 C2'       -7.2038     2.8574    78.4393 C.3       34 DA      0.0000
   2017 C1'       -6.2891     2.2953    77.3617 C.3       34 DA      0.0000
   2018 N9        -4.8672     2.5715    77.5901 N.ar      34 DA      0.0000
   2019 C8        -4.2269     3.7587    77.8058 C.ar      34 DA      0.0000
   2020 N7        -2.9281     3.6414    77.9708 N.ar      34 DA      0.0000
   2021 C5        -2.6967     2.2812    77.8306 C.ar      34 DA      0.0000
   2022 C6        -1.5052     1.5249    77.8786 C.ar      34 DA      0.0000
   2023 N6        -0.2929     2.0393    78.0983 N.pl3     34 DA      0.0000
   2024 N1        -1.6603     0.1809    77.6888 N.ar      34 DA      0.0000
   2025 C2        -2.8806    -0.3616    77.4710 C.ar      34 DA      0.0000
   2026 N3        -4.0432     0.2869    77.4128 N.ar      34 DA      0.0000
   2027 C4        -3.8715     1.6082    77.5996 C.ar      34 DA      0.0000
   2028 H5'       -8.1235     4.7501    74.8533 H         34 DA      0.0000
   2029 H5''      -9.6859     4.5279    75.6927 H         34 DA      0.0000
   2030 H4'       -8.5969     2.3869    75.6050 H         34 DA      0.0000
   2031 H3'       -9.2541     3.4695    78.1053 H         34 DA      0.0000
   2032 H2'       -6.9580     3.8905    78.6848 H         34 DA      0.0000
   2033 H2''      -7.1919     2.2295    79.3302 H         34 DA      0.0000
   2034 H1'       -6.4528     1.2237    77.2472 H         34 DA      0.0000
   2035 H8        -4.7413     4.7078    77.8379 H         34 DA      0.0000
   2036 H2        -2.9161    -1.4317    77.3297 H         34 DA      0.0000
   2037 H61       -0.0519     3.0154    78.0009 H         34 DA      0.0000
   2038 H62        0.5135     1.4559    77.9268 H         34 DA      0.0000
   2039 P          6.1367    -5.9356    80.2030 P.3       34 DT      0.0000
   2040 OP1        7.2183    -7.0073    80.3510 O.co2     34 DT      0.0000
   2041 OP2        6.7156    -4.7224    79.5332 O.co2     34 DT      0.0000
   2042 O5'        4.8451    -6.4917    79.5510 O.3       34 DT      0.0000
   2043 C5'        3.7735    -7.0619    80.3024 C.3       34 DT      0.0000
   2044 C4'        2.5003    -6.8280    79.5544 C.3       34 DT      0.0000
   2045 O4'        1.9884    -5.5240    79.4974 O.3       34 DT      0.0000
   2046 C3'        2.4368    -7.3085    78.0884 C.3       34 DT      0.0000
   2047 O3'        1.0696    -7.7176    77.9846 O.3       34 DT      0.0000
   2048 C2'        2.7079    -6.0055    77.3246 C.3       34 DT      0.0000
   2049 C1'        1.7442    -5.1310    78.1003 C.3       34 DT      0.0000
   2050 N1         1.9647    -3.6859    77.9942 N.am      34 DT      0.0000
   2051 C2         0.8046    -2.8997    77.9935 C.2       34 DT      0.0000
   2052 O2        -0.3140    -3.4162    78.0366 O.2       34 DT      0.0000
   2053 N3         0.9720    -1.5458    77.9401 N.am      34 DT      0.0000
   2054 C4         2.1995    -0.9558    77.8803 C.2       34 DT      0.0000
   2055 O4         2.2496     0.3095    77.8179 O.2       34 DT      0.0000
   2056 C5         3.3599    -1.7770    77.8886 C.2       34 DT      0.0000
   2057 C7         4.7300    -1.1348    77.8272 C.3       34 DT      0.0000
   2058 C6         3.1913    -3.1009    77.9551 C.2       34 DT      0.0000
   2059 H5'        3.9378    -8.1325    80.4246 H         34 DT      0.0000
   2060 H5''       3.7171    -6.5852    81.2810 H         34 DT      0.0000
   2061 H4'        1.7452    -7.4111    80.0817 H         34 DT      0.0000
   2062 H3'        3.1473    -8.1028    77.8596 H         34 DT      0.0000
   2063 H2'        2.4462    -6.0792    76.2690 H         34 DT      0.0000
   2064 H2''       3.7381    -5.6751    77.4562 H         34 DT      0.0000
   2065 H1'        0.7183    -5.3712    77.8213 H         34 DT      0.0000
   2066 H3         0.1518    -0.9565    77.9450 H         34 DT      0.0000
   2067 H6         4.0667    -3.7330    77.9788 H         34 DT      0.0000
   2068 H71        4.6222    -0.0513    77.7783 H         34 DT      0.0000
   2069 H72        5.2569    -1.4876    76.9406 H         34 DT      0.0000
   2070 H73        5.2975    -1.4037    78.7181 H         34 DT      0.0000
   2071 P          0.4305    -8.5472    76.8384 P.3       33 DC      0.0000
   2072 OP1       -0.3864    -9.6882    77.4475 O.co2     33 DC      0.0000
   2073 OP2        1.5755    -9.1104    76.0565 O.co2     33 DC      0.0000
   2074 O5'       -0.4770    -7.4140    76.0990 O.3       33 DC      0.0000
   2075 C5'       -1.6897    -7.0246    76.8235 C.3       33 DC      0.0000
   2076 C4'       -2.7246    -6.7158    75.7729 C.3       33 DC      0.0000
   2077 O4'       -2.8401    -5.3335    75.5277 O.3       33 DC      0.0000
   2078 C3'       -2.4824    -7.3634    74.4085 C.3       33 DC      0.0000
   2079 O3'       -3.6704    -7.7216    73.6992 O.3       33 DC      0.0000
   2080 C2'       -1.6436    -6.2764    73.7224 C.3       33 DC      0.0000
   2081 C1'       -2.2608    -4.9905    74.2690 C.3       33 DC      0.0000
   2082 N1        -1.1826    -3.9809    74.3868 N.am      33 DC      0.0000
   2083 C2        -1.5681    -2.6412    74.4040 C.2       33 DC      0.0000
   2084 O2        -2.7618    -2.3174    74.3354 O.2       33 DC      0.0000
   2085 N3        -0.5751    -1.7049    74.5073 N.2       33 DC      0.0000
   2086 C4         0.7375    -2.0488    74.5780 C.2       33 DC      0.0000
   2087 N4         1.6695    -1.0987    74.6799 N.pl3     33 DC      0.0000
   2088 C5         1.1038    -3.4235    74.5529 C.2       33 DC      0.0000
   2089 C6         0.1276    -4.3426    74.4593 C.2       33 DC      0.0000
   2090 H5'       -2.0289    -7.8422    77.4594 H         33 DC      0.0000
   2091 H5''      -1.4951    -6.1382    77.4274 H         33 DC      0.0000
   2092 H4'       -3.6876    -7.0691    76.1417 H         33 DC      0.0000
   2093 H3'       -1.8678    -8.2534    74.5427 H         33 DC      0.0000
   2094 H2'       -1.7402    -6.3300    72.6380 H         33 DC      0.0000
   2095 H2''      -0.5975    -6.3555    74.0184 H         33 DC      0.0000
   2096 H1'       -3.0337    -4.6313    73.5896 H         33 DC      0.0000
   2097 H5         2.1406    -3.7209    74.6077 H         33 DC      0.0000
   2098 H6         0.3884    -5.3905    74.4412 H         33 DC      0.0000
   2099 H41        1.3988    -0.1259    74.7006 H         33 DC      0.0000
   2100 H42        2.6454    -1.3527    74.7363 H         33 DC      0.0000
   2101 P         -3.8853    -7.6292    72.0672 P.3       32 DA      0.0000
   2102 OP1       -4.9853    -8.5929    71.6778 O.co2     32 DA      0.0000
   2103 OP2       -2.5474    -7.9450    71.4972 O.co2     32 DA      0.0000
   2104 O5'       -4.4443    -6.1431    71.9017 O.3       32 DA      0.0000
   2105 C5'       -5.8222    -5.8665    72.3671 C.3       32 DA      0.0000
   2106 C4'       -6.2153    -4.6901    71.4899 C.3       32 DA      0.0000
   2107 O4'       -5.3526    -3.5772    71.7572 O.3       32 DA      0.0000
   2108 C3'       -6.0404    -4.9639    69.9854 C.3       32 DA      0.0000
   2109 O3'       -6.7510    -4.0231    69.1964 O.3       32 DA      0.0000
   2110 C2'       -4.5537    -4.6100    69.7980 C.3       32 DA      0.0000
   2111 C1'       -4.6442    -3.2555    70.5526 C.3       32 DA      0.0000
   2112 N9        -3.2574    -2.8251    70.6981 N.ar      32 DA      0.0000
   2113 C8        -2.1505    -3.6409    70.7709 C.ar      32 DA      0.0000
   2114 N7        -1.0253    -2.9810    70.8855 N.ar      32 DA      0.0000
   2115 C5        -1.4310    -1.6344    70.8792 C.ar      32 DA      0.0000
   2116 C6        -0.6764    -0.4333    70.9791 C.ar      32 DA      0.0000
   2117 N6         0.6536    -0.3993    71.1020 N.pl3     32 DA      0.0000
   2118 N1        -1.4236     0.7054    70.9440 N.ar      32 DA      0.0000
   2119 C2        -2.7735     0.6713    70.8251 C.ar      32 DA      0.0000
   2120 N3        -3.5432    -0.4170    70.7336 N.ar      32 DA      0.0000
   2121 C4        -2.7952    -1.5339    70.7611 C.ar      32 DA      0.0000
   2122 H5'       -6.4766    -6.7220    72.2004 H         32 DA      0.0000
   2123 H5''      -5.8232    -5.5800    73.4188 H         32 DA      0.0000
   2124 H4'       -7.2488    -4.4101    71.6938 H         32 DA      0.0000
   2125 H3'       -6.2654    -5.9958    69.7158 H         32 DA      0.0000
   2126 H2'       -3.8828    -5.3215    70.2796 H         32 DA      0.0000
   2127 H2''      -4.3030    -4.4690    68.7466 H         32 DA      0.0000
   2128 H1'       -5.2065    -2.5305    69.9642 H         32 DA      0.0000
   2129 H8        -2.2050    -4.7190    70.7369 H         32 DA      0.0000
   2130 H2        -3.2804     1.6246    70.8019 H         32 DA      0.0000
   2131 H61        1.1807    -1.2604    71.1267 H         32 DA      0.0000
   2132 H62        1.1319     0.4877    71.1701 H         32 DA      0.0000
   2133 P         -7.7443    -4.5061    68.0555 P.3       31 DC      0.0000
   2134 OP1       -9.0183    -4.7849    68.8358 O.co2     31 DC      0.0000
   2135 OP2       -7.2452    -5.6796    67.3299 O.co2     31 DC      0.0000
   2136 O5'       -7.7510    -3.1824    67.0796 O.3       31 DC      0.0000
   2137 C5'       -8.0463    -1.8972    67.7486 C.3       31 DC      0.0000
   2138 C4'       -7.2132    -0.8207    67.1046 C.3       31 DC      0.0000
   2139 O4'       -5.9595    -0.6076    67.7417 O.3       31 DC      0.0000
   2140 C3'       -6.8994    -1.1103    65.6268 C.3       31 DC      0.0000
   2141 O3'       -6.8144     0.0546    64.8155 O.3       31 DC      0.0000
   2142 C2'       -5.4701    -1.7228    65.7924 C.3       31 DC      0.0000
   2143 C1'       -4.9769    -0.5272    66.6880 C.3       31 DC      0.0000
   2144 N1        -3.5719    -0.7315    66.9259 N.am      31 DC      0.0000
   2145 C2        -2.7892     0.3668    67.2431 C.2       31 DC      0.0000
   2146 O2        -3.1112     1.5520    67.3835 O.2       31 DC      0.0000
   2147 N3        -1.4514     0.1654    67.4413 N.2       31 DC      0.0000
   2148 C4        -0.8800    -1.0718    67.3253 C.2       31 DC      0.0000
   2149 N4         0.4361    -1.2228    67.5414 N.pl3     31 DC      0.0000
   2150 C5        -1.6959    -2.1892    66.9957 C.2       31 DC      0.0000
   2151 C6        -3.0014    -1.9669    66.8039 C.2       31 DC      0.0000
   2152 H5'       -9.1042    -1.6593    67.6372 H         31 DC      0.0000
   2153 H5''      -7.7967    -1.9694    68.8072 H         31 DC      0.0000
   2154 H4'       -7.7757     0.1117    67.1513 H         31 DC      0.0000
   2155 H3'       -7.5964    -1.8361    65.2078 H         31 DC      0.0000
   2156 H2'       -5.4666    -2.6823    66.3095 H         31 DC      0.0000
   2157 H2''      -4.9345    -1.7692    64.8442 H         31 DC      0.0000
   2158 H1'       -5.1142     0.4068    66.1431 H         31 DC      0.0000
   2159 H5        -1.2772    -3.1805    66.9035 H         31 DC      0.0000
   2160 H6        -3.6331    -2.8024    66.5407 H         31 DC      0.0000
   2161 H41        1.0034    -0.4226    67.7819 H         31 DC      0.0000
   2162 H42        0.8591    -2.1367    67.4634 H         31 DC      0.0000
@<TRIPOS>BOND
     1      9     34 1
     2     42     66 1
     3     74     99 1
     4    107    131 1
     5    139    163 1
     6    171    195 1
     7    203    227 1
     8    235    257 1
     9    265    289 1
    10    327    352 1
    11    360    384 1
    12    392    417 1
    13    425    449 1
    14    457    481 1
    15    489    513 1
    16    521    545 1
    17    553    575 1
    18    583    607 1
    19      1      2 1
    20      1      3 1
    21      1      4 1
    22      4      5 1
    23      5      6 1
    24      6      7 1
    25      6      8 1
    26      7     11 1
    27      8      9 1
    28      8     10 1
    29     10     11 1
    30     11     12 1
    31     12     13 ar
    32     12     22 ar
    33     13     14 ar
    34     14     15 ar
    35     15     16 1
    36     15     22 ar
    37     16     17 2
    38     16     18 am
    39     18     19 1
    40     19     20 2
    41     19     21 2
    42     21     22 1
    43     34     35 1
    44     34     36 1
    45     34     37 1
    46     37     38 1
    47     38     39 1
    48     39     40 1
    49     39     41 1
    50     40     44 1
    51     41     42 1
    52     41     43 1
    53     43     44 1
    54     44     45 1
    55     45     46 am
    56     45     53 1
    57     46     47 2
    58     46     48 am
    59     48     49 am
    60     49     50 2
    61     49     51 1
    62     51     52 1
    63     51     53 2
    64     66     67 1
    65     66     68 1
    66     66     69 1
    67     69     70 1
    68     70     71 1
    69     71     72 1
    70     71     73 1
    71     72     76 1
    72     73     74 1
    73     73     75 1
    74     75     76 1
    75     76     77 1
    76     77     78 ar
    77     77     87 ar
    78     78     79 ar
    79     79     80 ar
    80     80     81 1
    81     80     87 ar
    82     81     82 2
    83     81     83 am
    84     83     84 1
    85     84     85 2
    86     84     86 2
    87     86     87 1
    88     99    100 1
    89     99    101 1
    90     99    102 1
    91    102    103 1
    92    103    104 1
    93    104    105 1
    94    104    106 1
    95    105    109 1
    96    106    107 1
    97    106    108 1
    98    108    109 1
    99    109    110 1
   100    110    111 ar
   101    110    119 ar
   102    111    112 ar
   103    112    113 ar
   104    113    114 ar
   105    113    119 ar
   106    114    115 1
   107    114    116 ar
   108    116    117 ar
   109    117    118 ar
   110    118    119 ar
   111    131    132 1
   112    131    133 1
   113    131    134 1
   114    134    135 1
   115    135    136 1
   116    136    137 1
   117    136    138 1
   118    137    141 1
   119    138    139 1
   120    138    140 1
   121    140    141 1
   122    141    142 1
   123    142    143 ar
   124    142    151 ar
   125    143    144 ar
   126    144    145 ar
   127    145    146 ar
   128    145    151 ar
   129    146    147 1
   130    146    148 ar
   131    148    149 ar
   132    149    150 ar
   133    150    151 ar
   134    163    164 1
   135    163    165 1
   136    163    166 1
   137    166    167 1
   138    167    168 1
   139    168    169 1
   140    168    170 1
   141    169    173 1
   142    170    171 1
   143    170    172 1
   144    172    173 1
   145    173    174 1
   146    174    175 am
   147    174    182 1
   148    175    176 2
   149    175    177 am
   150    177    178 am
   151    178    179 2
   152    178    180 1
   153    180    181 1
   154    180    182 2
   155    195    196 1
   156    195    197 1
   157    195    198 1
   158    198    199 1
   159    199    200 1
   160    200    201 1
   161    200    202 1
   162    201    205 1
   163    202    203 1
   164    202    204 1
   165    204    205 1
   166    205    206 1
   167    206    207 am
   168    206    214 1
   169    207    208 2
   170    207    209 am
   171    209    210 am
   172    210    211 2
   173    210    212 1
   174    212    213 1
   175    212    214 2
   176    227    228 1
   177    227    229 1
   178    227    230 1
   179    230    231 1
   180    231    232 1
   181    232    233 1
   182    232    234 1
   183    233    237 1
   184    234    235 1
   185    234    236 1
   186    236    237 1
   187    237    238 1
   188    238    239 am
   189    238    245 1
   190    239    240 2
   191    239    241 1
   192    241    242 2
   193    242    243 2
   194    242    244 2
   195    244    245 2
   196    257    258 1
   197    257    259 1
   198    257    260 1
   199    260    261 1
   200    261    262 1
   201    262    263 1
   202    262    264 1
   203    263    267 1
   204    264    265 1
   205    264    266 1
   206    266    267 1
   207    267    268 1
   208    268    269 ar
   209    268    277 ar
   210    269    270 ar
   211    270    271 ar
   212    271    272 ar
   213    271    277 ar
   214    272    273 1
   215    272    274 ar
   216    274    275 ar
   217    275    276 ar
   218    276    277 ar
   219    289    290 1
   220    289    291 1
   221    289    292 1
   222    292    293 1
   223    293    294 1
   224    294    295 1
   225    294    296 1
   226    295    299 1
   227    296    297 1
   228    296    298 1
   229    298    299 1
   230    299    300 1
   231    300    301 am
   232    300    307 1
   233    301    302 2
   234    301    303 1
   235    303    304 2
   236    304    305 2
   237    304    306 2
   238    306    307 2
   239    319    320 1
   240    319    321 1
   241    319    322 1
   242    322    323 1
   243    323    324 1
   244    324    325 1
   245    324    326 1
   246    325    329 1
   247    326    327 1
   248    326    328 1
   249    328    329 1
   250    329    330 1
   251    330    331 ar
   252    330    340 ar
   253    331    332 ar
   254    332    333 ar
   255    333    334 1
   256    333    340 ar
   257    334    335 2
   258    334    336 am
   259    336    337 1
   260    337    338 2
   261    337    339 2
   262    339    340 1
   263    352    353 1
   264    352    354 1
   265    352    355 1
   266    355    356 1
   267    356    357 1
   268    357    358 1
   269    357    359 1
   270    358    362 1
   271    359    360 1
   272    359    361 1
   273    361    362 1
   274    362    363 1
   275    363    364 am
   276    363    371 1
   277    364    365 2
   278    364    366 am
   279    366    367 am
   280    367    368 2
   281    367    369 1
   282    369    370 1
   283    369    371 2
   284    384    385 1
   285    384    386 1
   286    384    387 1
   287    387    388 1
   288    388    389 1
   289    389    390 1
   290    389    391 1
   291    390    394 1
   292    391    392 1
   293    391    393 1
   294    393    394 1
   295    394    395 1
   296    395    396 ar
   297    395    405 ar
   298    396    397 ar
   299    397    398 ar
   300    398    399 1
   301    398    405 ar
   302    399    400 2
   303    399    401 am
   304    401    402 1
   305    402    403 2
   306    402    404 2
   307    404    405 1
   308    417    418 1
   309    417    419 1
   310    417    420 1
   311    420    421 1
   312    421    422 1
   313    422    423 1
   314    422    424 1
   315    423    427 1
   316    424    425 1
   317    424    426 1
   318    426    427 1
   319    427    428 1
   320    428    429 ar
   321    428    437 ar
   322    429    430 ar
   323    430    431 ar
   324    431    432 ar
   325    431    437 ar
   326    432    433 1
   327    432    434 ar
   328    434    435 ar
   329    435    436 ar
   330    436    437 ar
   331    449    450 1
   332    449    451 1
   333    449    452 1
   334    452    453 1
   335    453    454 1
   336    454    455 1
   337    454    456 1
   338    455    459 1
   339    456    457 1
   340    456    458 1
   341    458    459 1
   342    459    460 1
   343    460    461 ar
   344    460    469 ar
   345    461    462 ar
   346    462    463 ar
   347    463    464 ar
   348    463    469 ar
   349    464    465 1
   350    464    466 ar
   351    466    467 ar
   352    467    468 ar
   353    468    469 ar
   354    481    482 1
   355    481    483 1
   356    481    484 1
   357    484    485 1
   358    485    486 1
   359    486    487 1
   360    486    488 1
   361    487    491 1
   362    488    489 1
   363    488    490 1
   364    490    491 1
   365    491    492 1
   366    492    493 am
   367    492    500 1
   368    493    494 2
   369    493    495 am
   370    495    496 am
   371    496    497 2
   372    496    498 1
   373    498    499 1
   374    498    500 2
   375    513    514 1
   376    513    515 1
   377    513    516 1
   378    516    517 1
   379    517    518 1
   380    518    519 1
   381    518    520 1
   382    519    523 1
   383    520    521 1
   384    520    522 1
   385    522    523 1
   386    523    524 1
   387    524    525 am
   388    524    532 1
   389    525    526 2
   390    525    527 am
   391    527    528 am
   392    528    529 2
   393    528    530 1
   394    530    531 1
   395    530    532 2
   396    545    546 1
   397    545    547 1
   398    545    548 1
   399    548    549 1
   400    549    550 1
   401    550    551 1
   402    550    552 1
   403    551    555 1
   404    552    553 1
   405    552    554 1
   406    554    555 1
   407    555    556 1
   408    556    557 am
   409    556    563 1
   410    557    558 2
   411    557    559 1
   412    559    560 2
   413    560    561 2
   414    560    562 2
   415    562    563 2
   416    575    576 1
   417    575    577 1
   418    575    578 1
   419    578    579 1
   420    579    580 1
   421    580    581 1
   422    580    582 1
   423    581    585 1
   424    582    583 1
   425    582    584 1
   426    584    585 1
   427    585    586 1
   428    586    587 ar
   429    586    595 ar
   430    587    588 ar
   431    588    589 ar
   432    589    590 ar
   433    589    595 ar
   434    590    591 1
   435    590    592 ar
   436    592    593 ar
   437    593    594 ar
   438    594    595 ar
   439    607    608 1
   440    607    609 1
   441    607    610 1
   442    610    611 1
   443    611    612 1
   444    612    613 1
   445    612    614 1
   446    613    617 1
   447    614    615 1
   448    614    616 1
   449    616    617 1
   450    617    618 1
   451    618    619 am
   452    618    625 1
   453    619    620 2
   454    619    621 1
   455    621    622 2
   456    622    623 2
   457    622    624 2
   458    624    625 2
   459     23      5 1
   460     24      5 1
   461     25      6 1
   462     26      8 1
   463     27     10 1
   464     28     10 1
   465     29     11 1
   466     30     13 1
   467     31     18 1
   468     54     38 1
   469     55     38 1
   470     56     39 1
   471     57     41 1
   472     58     43 1
   473     59     43 1
   474     60     44 1
   475     61     48 1
   476     62     53 1
   477     88     70 1
   478     89     70 1
   479     90     71 1
   480     91     73 1
   481     92     75 1
   482     93     75 1
   483     94     76 1
   484     95     78 1
   485     96     83 1
   486    120    103 1
   487    121    103 1
   488    122    104 1
   489    123    106 1
   490    124    108 1
   491    125    108 1
   492    126    109 1
   493    127    111 1
   494    128    117 1
   495    152    135 1
   496    153    135 1
   497    154    136 1
   498    155    138 1
   499    156    140 1
   500    157    140 1
   501    158    141 1
   502    159    143 1
   503    160    149 1
   504    183    167 1
   505    184    167 1
   506    185    168 1
   507    186    170 1
   508    187    172 1
   509    188    172 1
   510    189    173 1
   511    190    177 1
   512    191    182 1
   513    215    199 1
   514    216    199 1
   515    217    200 1
   516    218    202 1
   517    219    204 1
   518    220    204 1
   519    221    205 1
   520    222    209 1
   521    223    214 1
   522    246    231 1
   523    247    231 1
   524    248    232 1
   525    249    234 1
   526    250    236 1
   527    251    236 1
   528    252    237 1
   529    253    244 1
   530    254    245 1
   531    278    261 1
   532    279    261 1
   533    280    262 1
   534    281    264 1
   535    282    266 1
   536    283    266 1
   537    284    267 1
   538    285    269 1
   539    286    275 1
   540    308    293 1
   541    309    293 1
   542    310    294 1
   543    311    296 1
   544    312    298 1
   545    313    298 1
   546    314    299 1
   547    315    306 1
   548    316    307 1
   549    341    323 1
   550    342    323 1
   551    343    324 1
   552    344    326 1
   553    345    328 1
   554    346    328 1
   555    347    329 1
   556    348    331 1
   557    349    336 1
   558    372    356 1
   559    373    356 1
   560    374    357 1
   561    375    359 1
   562    376    361 1
   563    377    361 1
   564    378    362 1
   565    379    366 1
   566    380    371 1
   567    406    388 1
   568    407    388 1
   569    408    389 1
   570    409    391 1
   571    410    393 1
   572    411    393 1
   573    412    394 1
   574    413    396 1
   575    414    401 1
   576    438    421 1
   577    439    421 1
   578    440    422 1
   579    441    424 1
   580    442    426 1
   581    443    426 1
   582    444    427 1
   583    445    429 1
   584    446    435 1
   585    470    453 1
   586    471    453 1
   587    472    454 1
   588    473    456 1
   589    474    458 1
   590    475    458 1
   591    476    459 1
   592    477    461 1
   593    478    467 1
   594    501    485 1
   595    502    485 1
   596    503    486 1
   597    504    488 1
   598    505    490 1
   599    506    490 1
   600    507    491 1
   601    508    495 1
   602    509    500 1
   603    533    517 1
   604    534    517 1
   605    535    518 1
   606    536    520 1
   607    537    522 1
   608    538    522 1
   609    539    523 1
   610    540    527 1
   611    541    532 1
   612    564    549 1
   613    565    549 1
   614    566    550 1
   615    567    552 1
   616    568    554 1
   617    569    554 1
   618    570    555 1
   619    571    562 1
   620    572    563 1
   621    596    579 1
   622    597    579 1
   623    598    580 1
   624    599    582 1
   625    600    584 1
   626    601    584 1
   627    602    585 1
   628    603    587 1
   629    604    593 1
   630    626    611 1
   631    627    611 1
   632    628    612 1
   633    629    614 1
   634    630    616 1
   635    631    616 1
   636    632    617 1
   637    633    624 1
   638    634    625 1
   639     32     20 1
   640     33     20 1
   641     97     85 1
   642     98     85 1
   643    255    243 1
   644    256    243 1
   645    317    305 1
   646    318    305 1
   647    350    338 1
   648    351    338 1
   649    415    403 1
   650    416    403 1
   651    573    561 1
   652    574    561 1
   653    635    623 1
   654    636    623 1
   655    129    115 1
   656    130    115 1
   657    161    147 1
   658    162    147 1
   659    287    273 1
   660    288    273 1
   661    447    433 1
   662    448    433 1
   663    479    465 1
   664    480    465 1
   665    605    591 1
   666    606    591 1
   667     63     52 1
   668     64     52 1
   669     65     52 1
   670    192    181 1
   671    193    181 1
   672    194    181 1
   673    224    213 1
   674    225    213 1
   675    226    213 1
   676    381    370 1
   677    382    370 1
   678    383    370 1
   679    510    499 1
   680    511    499 1
   681    512    499 1
   682    542    531 1
   683    543    531 1
   684    544    531 1
   685    297    637 1
   686    319   1251 1
   687    645    670 1
   688    678    702 1
   689    710    735 1
   690    743    767 1
   691    775    799 1
   692    807    831 1
   693    839    863 1
   694    871    893 1
   695    901    925 1
   696    963    988 1
   697    996   1020 1
   698   1028   1053 1
   699   1061   1085 1
   700   1093   1117 1
   701   1125   1149 1
   702   1157   1181 1
   703   1189   1211 1
   704   1219   1243 1
   705    637    638 1
   706    637    639 1
   707    637    640 1
   708    640    641 1
   709    641    642 1
   710    642    643 1
   711    642    644 1
   712    643    647 1
   713    644    645 1
   714    644    646 1
   715    646    647 1
   716    647    648 1
   717    648    649 ar
   718    648    658 ar
   719    649    650 ar
   720    650    651 ar
   721    651    652 1
   722    651    658 ar
   723    652    653 2
   724    652    654 am
   725    654    655 1
   726    655    656 2
   727    655    657 2
   728    657    658 1
   729    670    671 1
   730    670    672 1
   731    670    673 1
   732    673    674 1
   733    674    675 1
   734    675    676 1
   735    675    677 1
   736    676    680 1
   737    677    678 1
   738    677    679 1
   739    679    680 1
   740    680    681 1
   741    681    682 am
   742    681    689 1
   743    682    683 2
   744    682    684 am
   745    684    685 am
   746    685    686 2
   747    685    687 1
   748    687    688 1
   749    687    689 2
   750    702    703 1
   751    702    704 1
   752    702    705 1
   753    705    706 1
   754    706    707 1
   755    707    708 1
   756    707    709 1
   757    708    712 1
   758    709    710 1
   759    709    711 1
   760    711    712 1
   761    712    713 1
   762    713    714 ar
   763    713    723 ar
   764    714    715 ar
   765    715    716 ar
   766    716    717 1
   767    716    723 ar
   768    717    718 2
   769    717    719 am
   770    719    720 1
   771    720    721 2
   772    720    722 2
   773    722    723 1
   774    735    736 1
   775    735    737 1
   776    735    738 1
   777    738    739 1
   778    739    740 1
   779    740    741 1
   780    740    742 1
   781    741    745 1
   782    742    743 1
   783    742    744 1
   784    744    745 1
   785    745    746 1
   786    746    747 ar
   787    746    755 ar
   788    747    748 ar
   789    748    749 ar
   790    749    750 ar
   791    749    755 ar
   792    750    751 1
   793    750    752 ar
   794    752    753 ar
   795    753    754 ar
   796    754    755 ar
   797    767    768 1
   798    767    769 1
   799    767    770 1
   800    770    771 1
   801    771    772 1
   802    772    773 1
   803    772    774 1
   804    773    777 1
   805    774    775 1
   806    774    776 1
   807    776    777 1
   808    777    778 1
   809    778    779 ar
   810    778    787 ar
   811    779    780 ar
   812    780    781 ar
   813    781    782 ar
   814    781    787 ar
   815    782    783 1
   816    782    784 ar
   817    784    785 ar
   818    785    786 ar
   819    786    787 ar
   820    799    800 1
   821    799    801 1
   822    799    802 1
   823    802    803 1
   824    803    804 1
   825    804    805 1
   826    804    806 1
   827    805    809 1
   828    806    807 1
   829    806    808 1
   830    808    809 1
   831    809    810 1
   832    810    811 am
   833    810    818 1
   834    811    812 2
   835    811    813 am
   836    813    814 am
   837    814    815 2
   838    814    816 1
   839    816    817 1
   840    816    818 2
   841    831    832 1
   842    831    833 1
   843    831    834 1
   844    834    835 1
   845    835    836 1
   846    836    837 1
   847    836    838 1
   848    837    841 1
   849    838    839 1
   850    838    840 1
   851    840    841 1
   852    841    842 1
   853    842    843 am
   854    842    850 1
   855    843    844 2
   856    843    845 am
   857    845    846 am
   858    846    847 2
   859    846    848 1
   860    848    849 1
   861    848    850 2
   862    863    864 1
   863    863    865 1
   864    863    866 1
   865    866    867 1
   866    867    868 1
   867    868    869 1
   868    868    870 1
   869    869    873 1
   870    870    871 1
   871    870    872 1
   872    872    873 1
   873    873    874 1
   874    874    875 am
   875    874    881 1
   876    875    876 2
   877    875    877 1
   878    877    878 2
   879    878    879 2
   880    878    880 2
   881    880    881 2
   882    893    894 1
   883    893    895 1
   884    893    896 1
   885    896    897 1
   886    897    898 1
   887    898    899 1
   888    898    900 1
   889    899    903 1
   890    900    901 1
   891    900    902 1
   892    902    903 1
   893    903    904 1
   894    904    905 ar
   895    904    913 ar
   896    905    906 ar
   897    906    907 ar
   898    907    908 ar
   899    907    913 ar
   900    908    909 1
   901    908    910 ar
   902    910    911 ar
   903    911    912 ar
   904    912    913 ar
   905    925    926 1
   906    925    927 1
   907    925    928 1
   908    928    929 1
   909    929    930 1
   910    930    931 1
   911    930    932 1
   912    931    935 1
   913    932    933 1
   914    932    934 1
   915    934    935 1
   916    935    936 1
   917    936    937 am
   918    936    943 1
   919    937    938 2
   920    937    939 1
   921    939    940 2
   922    940    941 2
   923    940    942 2
   924    942    943 2
   925    955    956 1
   926    955    957 1
   927    955    958 1
   928    958    959 1
   929    959    960 1
   930    960    961 1
   931    960    962 1
   932    961    965 1
   933    962    963 1
   934    962    964 1
   935    964    965 1
   936    965    966 1
   937    966    967 ar
   938    966    976 ar
   939    967    968 ar
   940    968    969 ar
   941    969    970 1
   942    969    976 ar
   943    970    971 2
   944    970    972 am
   945    972    973 1
   946    973    974 2
   947    973    975 2
   948    975    976 1
   949    988    989 1
   950    988    990 1
   951    988    991 1
   952    991    992 1
   953    992    993 1
   954    993    994 1
   955    993    995 1
   956    994    998 1
   957    995    996 1
   958    995    997 1
   959    997    998 1
   960    998    999 1
   961    999   1000 am
   962    999   1007 1
   963   1000   1001 2
   964   1000   1002 am
   965   1002   1003 am
   966   1003   1004 2
   967   1003   1005 1
   968   1005   1006 1
   969   1005   1007 2
   970   1020   1021 1
   971   1020   1022 1
   972   1020   1023 1
   973   1023   1024 1
   974   1024   1025 1
   975   1025   1026 1
   976   1025   1027 1
   977   1026   1030 1
   978   1027   1028 1
   979   1027   1029 1
   980   1029   1030 1
   981   1030   1031 1
   982   1031   1032 ar
   983   1031   1041 ar
   984   1032   1033 ar
   985   1033   1034 ar
   986   1034   1035 1
   987   1034   1041 ar
   988   1035   1036 2
   989   1035   1037 am
   990   1037   1038 1
   991   1038   1039 2
   992   1038   1040 2
   993   1040   1041 1
   994   1053   1054 1
   995   1053   1055 1
   996   1053   1056 1
   997   1056   1057 1
   998   1057   1058 1
   999   1058   1059 1
  1000   1058   1060 1
  1001   1059   1063 1
  1002   1060   1061 1
  1003   1060   1062 1
  1004   1062   1063 1
  1005   1063   1064 1
  1006   1064   1065 ar
  1007   1064   1073 ar
  1008   1065   1066 ar
  1009   1066   1067 ar
  1010   1067   1068 ar
  1011   1067   1073 ar
  1012   1068   1069 1
  1013   1068   1070 ar
  1014   1070   1071 ar
  1015   1071   1072 ar
  1016   1072   1073 ar
  1017   1085   1086 1
  1018   1085   1087 1
  1019   1085   1088 1
  1020   1088   1089 1
  1021   1089   1090 1
  1022   1090   1091 1
  1023   1090   1092 1
  1024   1091   1095 1
  1025   1092   1093 1
  1026   1092   1094 1
  1027   1094   1095 1
  1028   1095   1096 1
  1029   1096   1097 ar
  1030   1096   1105 ar
  1031   1097   1098 ar
  1032   1098   1099 ar
  1033   1099   1100 ar
  1034   1099   1105 ar
  1035   1100   1101 1
  1036   1100   1102 ar
  1037   1102   1103 ar
  1038   1103   1104 ar
  1039   1104   1105 ar
  1040   1117   1118 1
  1041   1117   1119 1
  1042   1117   1120 1
  1043   1120   1121 1
  1044   1121   1122 1
  1045   1122   1123 1
  1046   1122   1124 1
  1047   1123   1127 1
  1048   1124   1125 1
  1049   1124   1126 1
  1050   1126   1127 1
  1051   1127   1128 1
  1052   1128   1129 am
  1053   1128   1136 1
  1054   1129   1130 2
  1055   1129   1131 am
  1056   1131   1132 am
  1057   1132   1133 2
  1058   1132   1134 1
  1059   1134   1135 1
  1060   1134   1136 2
  1061   1149   1150 1
  1062   1149   1151 1
  1063   1149   1152 1
  1064   1152   1153 1
  1065   1153   1154 1
  1066   1154   1155 1
  1067   1154   1156 1
  1068   1155   1159 1
  1069   1156   1157 1
  1070   1156   1158 1
  1071   1158   1159 1
  1072   1159   1160 1
  1073   1160   1161 am
  1074   1160   1168 1
  1075   1161   1162 2
  1076   1161   1163 am
  1077   1163   1164 am
  1078   1164   1165 2
  1079   1164   1166 1
  1080   1166   1167 1
  1081   1166   1168 2
  1082   1181   1182 1
  1083   1181   1183 1
  1084   1181   1184 1
  1085   1184   1185 1
  1086   1185   1186 1
  1087   1186   1187 1
  1088   1186   1188 1
  1089   1187   1191 1
  1090   1188   1189 1
  1091   1188   1190 1
  1092   1190   1191 1
  1093   1191   1192 1
  1094   1192   1193 am
  1095   1192   1199 1
  1096   1193   1194 2
  1097   1193   1195 1
  1098   1195   1196 2
  1099   1196   1197 2
  1100   1196   1198 2
  1101   1198   1199 2
  1102   1211   1212 1
  1103   1211   1213 1
  1104   1211   1214 1
  1105   1214   1215 1
  1106   1215   1216 1
  1107   1216   1217 1
  1108   1216   1218 1
  1109   1217   1221 1
  1110   1218   1219 1
  1111   1218   1220 1
  1112   1220   1221 1
  1113   1221   1222 1
  1114   1222   1223 ar
  1115   1222   1231 ar
  1116   1223   1224 ar
  1117   1224   1225 ar
  1118   1225   1226 ar
  1119   1225   1231 ar
  1120   1226   1227 1
  1121   1226   1228 ar
  1122   1228   1229 ar
  1123   1229   1230 ar
  1124   1230   1231 ar
  1125   1243   1244 1
  1126   1243   1245 1
  1127   1243   1246 1
  1128   1246   1247 1
  1129   1247   1248 1
  1130   1248   1249 1
  1131   1248   1250 1
  1132   1249   1253 1
  1133   1250   1251 1
  1134   1250   1252 1
  1135   1252   1253 1
  1136   1253   1254 1
  1137   1254   1255 am
  1138   1254   1261 1
  1139   1255   1256 2
  1140   1255   1257 1
  1141   1257   1258 2
  1142   1258   1259 2
  1143   1258   1260 2
  1144   1260   1261 2
  1145    659    641 1
  1146    660    641 1
  1147    661    642 1
  1148    662    644 1
  1149    663    646 1
  1150    664    646 1
  1151    665    647 1
  1152    666    649 1
  1153    667    654 1
  1154    690    674 1
  1155    691    674 1
  1156    692    675 1
  1157    693    677 1
  1158    694    679 1
  1159    695    679 1
  1160    696    680 1
  1161    697    684 1
  1162    698    689 1
  1163    724    706 1
  1164    725    706 1
  1165    726    707 1
  1166    727    709 1
  1167    728    711 1
  1168    729    711 1
  1169    730    712 1
  1170    731    714 1
  1171    732    719 1
  1172    756    739 1
  1173    757    739 1
  1174    758    740 1
  1175    759    742 1
  1176    760    744 1
  1177    761    744 1
  1178    762    745 1
  1179    763    747 1
  1180    764    753 1
  1181    788    771 1
  1182    789    771 1
  1183    790    772 1
  1184    791    774 1
  1185    792    776 1
  1186    793    776 1
  1187    794    777 1
  1188    795    779 1
  1189    796    785 1
  1190    819    803 1
  1191    820    803 1
  1192    821    804 1
  1193    822    806 1
  1194    823    808 1
  1195    824    808 1
  1196    825    809 1
  1197    826    813 1
  1198    827    818 1
  1199    851    835 1
  1200    852    835 1
  1201    853    836 1
  1202    854    838 1
  1203    855    840 1
  1204    856    840 1
  1205    857    841 1
  1206    858    845 1
  1207    859    850 1
  1208    882    867 1
  1209    883    867 1
  1210    884    868 1
  1211    885    870 1
  1212    886    872 1
  1213    887    872 1
  1214    888    873 1
  1215    889    880 1
  1216    890    881 1
  1217    914    897 1
  1218    915    897 1
  1219    916    898 1
  1220    917    900 1
  1221    918    902 1
  1222    919    902 1
  1223    920    903 1
  1224    921    905 1
  1225    922    911 1
  1226    944    929 1
  1227    945    929 1
  1228    946    930 1
  1229    947    932 1
  1230    948    934 1
  1231    949    934 1
  1232    950    935 1
  1233    951    942 1
  1234    952    943 1
  1235    977    959 1
  1236    978    959 1
  1237    979    960 1
  1238    980    962 1
  1239    981    964 1
  1240    982    964 1
  1241    983    965 1
  1242    984    967 1
  1243    985    972 1
  1244   1008    992 1
  1245   1009    992 1
  1246   1010    993 1
  1247   1011    995 1
  1248   1012    997 1
  1249   1013    997 1
  1250   1014    998 1
  1251   1015   1002 1
  1252   1016   1007 1
  1253   1042   1024 1
  1254   1043   1024 1
  1255   1044   1025 1
  1256   1045   1027 1
  1257   1046   1029 1
  1258   1047   1029 1
  1259   1048   1030 1
  1260   1049   1032 1
  1261   1050   1037 1
  1262   1074   1057 1
  1263   1075   1057 1
  1264   1076   1058 1
  1265   1077   1060 1
  1266   1078   1062 1
  1267   1079   1062 1
  1268   1080   1063 1
  1269   1081   1065 1
  1270   1082   1071 1
  1271   1106   1089 1
  1272   1107   1089 1
  1273   1108   1090 1
  1274   1109   1092 1
  1275   1110   1094 1
  1276   1111   1094 1
  1277   1112   1095 1
  1278   1113   1097 1
  1279   1114   1103 1
  1280   1137   1121 1
  1281   1138   1121 1
  1282   1139   1122 1
  1283   1140   1124 1
  1284   1141   1126 1
  1285   1142   1126 1
  1286   1143   1127 1
  1287   1144   1131 1
  1288   1145   1136 1
  1289   1169   1153 1
  1290   1170   1153 1
  1291   1171   1154 1
  1292   1172   1156 1
  1293   1173   1158 1
  1294   1174   1158 1
  1295   1175   1159 1
  1296   1176   1163 1
  1297   1177   1168 1
  1298   1200   1185 1
  1299   1201   1185 1
  1300   1202   1186 1
  1301   1203   1188 1
  1302   1204   1190 1
  1303   1205   1190 1
  1304   1206   1191 1
  1305   1207   1198 1
  1306   1208   1199 1
  1307   1232   1215 1
  1308   1233   1215 1
  1309   1234   1216 1
  1310   1235   1218 1
  1311   1236   1220 1
  1312   1237   1220 1
  1313   1238   1221 1
  1314   1239   1223 1
  1315   1240   1229 1
  1316   1262   1247 1
  1317   1263   1247 1
  1318   1264   1248 1
  1319   1265   1250 1
  1320   1266   1252 1
  1321   1267   1252 1
  1322   1268   1253 1
  1323   1269   1260 1
  1324   1270   1261 1
  1325    668    656 1
  1326    669    656 1
  1327    733    721 1
  1328    734    721 1
  1329    891    879 1
  1330    892    879 1
  1331    953    941 1
  1332    954    941 1
  1333    986    974 1
  1334    987    974 1
  1335   1051   1039 1
  1336   1052   1039 1
  1337   1209   1197 1
  1338   1210   1197 1
  1339   1271   1259 1
  1340   1272   1259 1
  1341    765    751 1
  1342    766    751 1
  1343    797    783 1
  1344    798    783 1
  1345    923    909 1
  1346    924    909 1
  1347   1083   1069 1
  1348   1084   1069 1
  1349   1115   1101 1
  1350   1116   1101 1
  1351   1241   1227 1
  1352   1242   1227 1
  1353    699    688 1
  1354    700    688 1
  1355    701    688 1
  1356    828    817 1
  1357    829    817 1
  1358    830    817 1
  1359    860    849 1
  1360    861    849 1
  1361    862    849 1
  1362   1017   1006 1
  1363   1018   1006 1
  1364   1019   1006 1
  1365   1146   1135 1
  1366   1147   1135 1
  1367   1148   1135 1
  1368   1178   1167 1
  1369   1179   1167 1
  1370   1180   1167 1
  1371    933   1273 1
  1372    955   1887 1
  1373   1281   1306 1
  1374   1314   1338 1
  1375   1346   1371 1
  1376   1379   1403 1
  1377   1411   1435 1
  1378   1443   1467 1
  1379   1475   1499 1
  1380   1507   1529 1
  1381   1537   1561 1
  1382   1599   1624 1
  1383   1632   1656 1
  1384   1664   1689 1
  1385   1697   1721 1
  1386   1729   1753 1
  1387   1761   1785 1
  1388   1793   1817 1
  1389   1825   1847 1
  1390   1855   1879 1
  1391   1273   1274 1
  1392   1273   1275 1
  1393   1273   1276 1
  1394   1276   1277 1
  1395   1277   1278 1
  1396   1278   1279 1
  1397   1278   1280 1
  1398   1279   1283 1
  1399   1280   1281 1
  1400   1280   1282 1
  1401   1282   1283 1
  1402   1283   1284 1
  1403   1284   1285 ar
  1404   1284   1294 ar
  1405   1285   1286 ar
  1406   1286   1287 ar
  1407   1287   1288 1
  1408   1287   1294 ar
  1409   1288   1289 2
  1410   1288   1290 am
  1411   1290   1291 1
  1412   1291   1292 2
  1413   1291   1293 2
  1414   1293   1294 1
  1415   1306   1307 1
  1416   1306   1308 1
  1417   1306   1309 1
  1418   1309   1310 1
  1419   1310   1311 1
  1420   1311   1312 1
  1421   1311   1313 1
  1422   1312   1316 1
  1423   1313   1314 1
  1424   1313   1315 1
  1425   1315   1316 1
  1426   1316   1317 1
  1427   1317   1318 am
  1428   1317   1325 1
  1429   1318   1319 2
  1430   1318   1320 am
  1431   1320   1321 am
  1432   1321   1322 2
  1433   1321   1323 1
  1434   1323   1324 1
  1435   1323   1325 2
  1436   1338   1339 1
  1437   1338   1340 1
  1438   1338   1341 1
  1439   1341   1342 1
  1440   1342   1343 1
  1441   1343   1344 1
  1442   1343   1345 1
  1443   1344   1348 1
  1444   1345   1346 1
  1445   1345   1347 1
  1446   1347   1348 1
  1447   1348   1349 1
  1448   1349   1350 ar
  1449   1349   1359 ar
  1450   1350   1351 ar
  1451   1351   1352 ar
  1452   1352   1353 1
  1453   1352   1359 ar
  1454   1353   1354 2
  1455   1353   1355 am
  1456   1355   1356 1
  1457   1356   1357 2
  1458   1356   1358 2
  1459   1358   1359 1
  1460   1371   1372 1
  1461   1371   1373 1
  1462   1371   1374 1
  1463   1374   1375 1
  1464   1375   1376 1
  1465   1376   1377 1
  1466   1376   1378 1
  1467   1377   1381 1
  1468   1378   1379 1
  1469   1378   1380 1
  1470   1380   1381 1
  1471   1381   1382 1
  1472   1382   1383 ar
  1473   1382   1391 ar
  1474   1383   1384 ar
  1475   1384   1385 ar
  1476   1385   1386 ar
  1477   1385   1391 ar
  1478   1386   1387 1
  1479   1386   1388 ar
  1480   1388   1389 ar
  1481   1389   1390 ar
  1482   1390   1391 ar
  1483   1403   1404 1
  1484   1403   1405 1
  1485   1403   1406 1
  1486   1406   1407 1
  1487   1407   1408 1
  1488   1408   1409 1
  1489   1408   1410 1
  1490   1409   1413 1
  1491   1410   1411 1
  1492   1410   1412 1
  1493   1412   1413 1
  1494   1413   1414 1
  1495   1414   1415 ar
  1496   1414   1423 ar
  1497   1415   1416 ar
  1498   1416   1417 ar
  1499   1417   1418 ar
  1500   1417   1423 ar
  1501   1418   1419 1
  1502   1418   1420 ar
  1503   1420   1421 ar
  1504   1421   1422 ar
  1505   1422   1423 ar
  1506   1435   1436 1
  1507   1435   1437 1
  1508   1435   1438 1
  1509   1438   1439 1
  1510   1439   1440 1
  1511   1440   1441 1
  1512   1440   1442 1
  1513   1441   1445 1
  1514   1442   1443 1
  1515   1442   1444 1
  1516   1444   1445 1
  1517   1445   1446 1
  1518   1446   1447 am
  1519   1446   1454 1
  1520   1447   1448 2
  1521   1447   1449 am
  1522   1449   1450 am
  1523   1450   1451 2
  1524   1450   1452 1
  1525   1452   1453 1
  1526   1452   1454 2
  1527   1467   1468 1
  1528   1467   1469 1
  1529   1467   1470 1
  1530   1470   1471 1
  1531   1471   1472 1
  1532   1472   1473 1
  1533   1472   1474 1
  1534   1473   1477 1
  1535   1474   1475 1
  1536   1474   1476 1
  1537   1476   1477 1
  1538   1477   1478 1
  1539   1478   1479 am
  1540   1478   1486 1
  1541   1479   1480 2
  1542   1479   1481 am
  1543   1481   1482 am
  1544   1482   1483 2
  1545   1482   1484 1
  1546   1484   1485 1
  1547   1484   1486 2
  1548   1499   1500 1
  1549   1499   1501 1
  1550   1499   1502 1
  1551   1502   1503 1
  1552   1503   1504 1
  1553   1504   1505 1
  1554   1504   1506 1
  1555   1505   1509 1
  1556   1506   1507 1
  1557   1506   1508 1
  1558   1508   1509 1
  1559   1509   1510 1
  1560   1510   1511 am
  1561   1510   1517 1
  1562   1511   1512 2
  1563   1511   1513 1
  1564   1513   1514 2
  1565   1514   1515 2
  1566   1514   1516 2
  1567   1516   1517 2
  1568   1529   1530 1
  1569   1529   1531 1
  1570   1529   1532 1
  1571   1532   1533 1
  1572   1533   1534 1
  1573   1534   1535 1
  1574   1534   1536 1
  1575   1535   1539 1
  1576   1536   1537 1
  1577   1536   1538 1
  1578   1538   1539 1
  1579   1539   1540 1
  1580   1540   1541 ar
  1581   1540   1549 ar
  1582   1541   1542 ar
  1583   1542   1543 ar
  1584   1543   1544 ar
  1585   1543   1549 ar
  1586   1544   1545 1
  1587   1544   1546 ar
  1588   1546   1547 ar
  1589   1547   1548 ar
  1590   1548   1549 ar
  1591   1561   1562 1
  1592   1561   1563 1
  1593   1561   1564 1
  1594   1564   1565 1
  1595   1565   1566 1
  1596   1566   1567 1
  1597   1566   1568 1
  1598   1567   1571 1
  1599   1568   1569 1
  1600   1568   1570 1
  1601   1570   1571 1
  1602   1571   1572 1
  1603   1572   1573 am
  1604   1572   1579 1
  1605   1573   1574 2
  1606   1573   1575 1
  1607   1575   1576 2
  1608   1576   1577 2
  1609   1576   1578 2
  1610   1578   1579 2
  1611   1591   1592 1
  1612   1591   1593 1
  1613   1591   1594 1
  1614   1594   1595 1
  1615   1595   1596 1
  1616   1596   1597 1
  1617   1596   1598 1
  1618   1597   1601 1
  1619   1598   1599 1
  1620   1598   1600 1
  1621   1600   1601 1
  1622   1601   1602 1
  1623   1602   1603 ar
  1624   1602   1612 ar
  1625   1603   1604 ar
  1626   1604   1605 ar
  1627   1605   1606 1
  1628   1605   1612 ar
  1629   1606   1607 2
  1630   1606   1608 am
  1631   1608   1609 1
  1632   1609   1610 2
  1633   1609   1611 2
  1634   1611   1612 1
  1635   1624   1625 1
  1636   1624   1626 1
  1637   1624   1627 1
  1638   1627   1628 1
  1639   1628   1629 1
  1640   1629   1630 1
  1641   1629   1631 1
  1642   1630   1634 1
  1643   1631   1632 1
  1644   1631   1633 1
  1645   1633   1634 1
  1646   1634   1635 1
  1647   1635   1636 am
  1648   1635   1643 1
  1649   1636   1637 2
  1650   1636   1638 am
  1651   1638   1639 am
  1652   1639   1640 2
  1653   1639   1641 1
  1654   1641   1642 1
  1655   1641   1643 2
  1656   1656   1657 1
  1657   1656   1658 1
  1658   1656   1659 1
  1659   1659   1660 1
  1660   1660   1661 1
  1661   1661   1662 1
  1662   1661   1663 1
  1663   1662   1666 1
  1664   1663   1664 1
  1665   1663   1665 1
  1666   1665   1666 1
  1667   1666   1667 1
  1668   1667   1668 ar
  1669   1667   1677 ar
  1670   1668   1669 ar
  1671   1669   1670 ar
  1672   1670   1671 1
  1673   1670   1677 ar
  1674   1671   1672 2
  1675   1671   1673 am
  1676   1673   1674 1
  1677   1674   1675 2
  1678   1674   1676 2
  1679   1676   1677 1
  1680   1689   1690 1
  1681   1689   1691 1
  1682   1689   1692 1
  1683   1692   1693 1
  1684   1693   1694 1
  1685   1694   1695 1
  1686   1694   1696 1
  1687   1695   1699 1
  1688   1696   1697 1
  1689   1696   1698 1
  1690   1698   1699 1
  1691   1699   1700 1
  1692   1700   1701 ar
  1693   1700   1709 ar
  1694   1701   1702 ar
  1695   1702   1703 ar
  1696   1703   1704 ar
  1697   1703   1709 ar
  1698   1704   1705 1
  1699   1704   1706 ar
  1700   1706   1707 ar
  1701   1707   1708 ar
  1702   1708   1709 ar
  1703   1721   1722 1
  1704   1721   1723 1
  1705   1721   1724 1
  1706   1724   1725 1
  1707   1725   1726 1
  1708   1726   1727 1
  1709   1726   1728 1
  1710   1727   1731 1
  1711   1728   1729 1
  1712   1728   1730 1
  1713   1730   1731 1
  1714   1731   1732 1
  1715   1732   1733 ar
  1716   1732   1741 ar
  1717   1733   1734 ar
  1718   1734   1735 ar
  1719   1735   1736 ar
  1720   1735   1741 ar
  1721   1736   1737 1
  1722   1736   1738 ar
  1723   1738   1739 ar
  1724   1739   1740 ar
  1725   1740   1741 ar
  1726   1753   1754 1
  1727   1753   1755 1
  1728   1753   1756 1
  1729   1756   1757 1
  1730   1757   1758 1
  1731   1758   1759 1
  1732   1758   1760 1
  1733   1759   1763 1
  1734   1760   1761 1
  1735   1760   1762 1
  1736   1762   1763 1
  1737   1763   1764 1
  1738   1764   1765 am
  1739   1764   1772 1
  1740   1765   1766 2
  1741   1765   1767 am
  1742   1767   1768 am
  1743   1768   1769 2
  1744   1768   1770 1
  1745   1770   1771 1
  1746   1770   1772 2
  1747   1785   1786 1
  1748   1785   1787 1
  1749   1785   1788 1
  1750   1788   1789 1
  1751   1789   1790 1
  1752   1790   1791 1
  1753   1790   1792 1
  1754   1791   1795 1
  1755   1792   1793 1
  1756   1792   1794 1
  1757   1794   1795 1
  1758   1795   1796 1
  1759   1796   1797 am
  1760   1796   1804 1
  1761   1797   1798 2
  1762   1797   1799 am
  1763   1799   1800 am
  1764   1800   1801 2
  1765   1800   1802 1
  1766   1802   1803 1
  1767   1802   1804 2
  1768   1817   1818 1
  1769   1817   1819 1
  1770   1817   1820 1
  1771   1820   1821 1
  1772   1821   1822 1
  1773   1822   1823 1
  1774   1822   1824 1
  1775   1823   1827 1
  1776   1824   1825 1
  1777   1824   1826 1
  1778   1826   1827 1
  1779   1827   1828 1
  1780   1828   1829 am
  1781   1828   1835 1
  1782   1829   1830 2
  1783   1829   1831 1
  1784   1831   1832 2
  1785   1832   1833 2
  1786   1832   1834 2
  1787   1834   1835 2
  1788   1847   1848 1
  1789   1847   1849 1
  1790   1847   1850 1
  1791   1850   1851 1
  1792   1851   1852 1
  1793   1852   1853 1
  1794   1852   1854 1
  1795   1853   1857 1
  1796   1854   1855 1
  1797   1854   1856 1
  1798   1856   1857 1
  1799   1857   1858 1
  1800   1858   1859 ar
  1801   1858   1867 ar
  1802   1859   1860 ar
  1803   1860   1861 ar
  1804   1861   1862 ar
  1805   1861   1867 ar
  1806   1862   1863 1
  1807   1862   1864 ar
  1808   1864   1865 ar
  1809   1865   1866 ar
  1810   1866   1867 ar
  1811   1879   1880 1
  1812   1879   1881 1
  1813   1879   1882 1
  1814   1882   1883 1
  1815   1883   1884 1
  1816   1884   1885 1
  1817   1884   1886 1
  1818   1885   1889 1
  1819   1886   1887 1
  1820   1886   1888 1
  1821   1888   1889 1
  1822   1889   1890 1
  1823   1890   1891 am
  1824   1890   1897 1
  1825   1891   1892 2
  1826   1891   1893 1
  1827   1893   1894 2
  1828   1894   1895 2
  1829   1894   1896 2
  1830   1896   1897 2
  1831   1295   1277 1
  1832   1296   1277 1
  1833   1297   1278 1
  1834   1298   1280 1
  1835   1299   1282 1
  1836   1300   1282 1
  1837   1301   1283 1
  1838   1302   1285 1
  1839   1303   1290 1
  1840   1326   1310 1
  1841   1327   1310 1
  1842   1328   1311 1
  1843   1329   1313 1
  1844   1330   1315 1
  1845   1331   1315 1
  1846   1332   1316 1
  1847   1333   1320 1
  1848   1334   1325 1
  1849   1360   1342 1
  1850   1361   1342 1
  1851   1362   1343 1
  1852   1363   1345 1
  1853   1364   1347 1
  1854   1365   1347 1
  1855   1366   1348 1
  1856   1367   1350 1
  1857   1368   1355 1
  1858   1392   1375 1
  1859   1393   1375 1
  1860   1394   1376 1
  1861   1395   1378 1
  1862   1396   1380 1
  1863   1397   1380 1
  1864   1398   1381 1
  1865   1399   1383 1
  1866   1400   1389 1
  1867   1424   1407 1
  1868   1425   1407 1
  1869   1426   1408 1
  1870   1427   1410 1
  1871   1428   1412 1
  1872   1429   1412 1
  1873   1430   1413 1
  1874   1431   1415 1
  1875   1432   1421 1
  1876   1455   1439 1
  1877   1456   1439 1
  1878   1457   1440 1
  1879   1458   1442 1
  1880   1459   1444 1
  1881   1460   1444 1
  1882   1461   1445 1
  1883   1462   1449 1
  1884   1463   1454 1
  1885   1487   1471 1
  1886   1488   1471 1
  1887   1489   1472 1
  1888   1490   1474 1
  1889   1491   1476 1
  1890   1492   1476 1
  1891   1493   1477 1
  1892   1494   1481 1
  1893   1495   1486 1
  1894   1518   1503 1
  1895   1519   1503 1
  1896   1520   1504 1
  1897   1521   1506 1
  1898   1522   1508 1
  1899   1523   1508 1
  1900   1524   1509 1
  1901   1525   1516 1
  1902   1526   1517 1
  1903   1550   1533 1
  1904   1551   1533 1
  1905   1552   1534 1
  1906   1553   1536 1
  1907   1554   1538 1
  1908   1555   1538 1
  1909   1556   1539 1
  1910   1557   1541 1
  1911   1558   1547 1
  1912   1580   1565 1
  1913   1581   1565 1
  1914   1582   1566 1
  1915   1583   1568 1
  1916   1584   1570 1
  1917   1585   1570 1
  1918   1586   1571 1
  1919   1587   1578 1
  1920   1588   1579 1
  1921   1613   1595 1
  1922   1614   1595 1
  1923   1615   1596 1
  1924   1616   1598 1
  1925   1617   1600 1
  1926   1618   1600 1
  1927   1619   1601 1
  1928   1620   1603 1
  1929   1621   1608 1
  1930   1644   1628 1
  1931   1645   1628 1
  1932   1646   1629 1
  1933   1647   1631 1
  1934   1648   1633 1
  1935   1649   1633 1
  1936   1650   1634 1
  1937   1651   1638 1
  1938   1652   1643 1
  1939   1678   1660 1
  1940   1679   1660 1
  1941   1680   1661 1
  1942   1681   1663 1
  1943   1682   1665 1
  1944   1683   1665 1
  1945   1684   1666 1
  1946   1685   1668 1
  1947   1686   1673 1
  1948   1710   1693 1
  1949   1711   1693 1
  1950   1712   1694 1
  1951   1713   1696 1
  1952   1714   1698 1
  1953   1715   1698 1
  1954   1716   1699 1
  1955   1717   1701 1
  1956   1718   1707 1
  1957   1742   1725 1
  1958   1743   1725 1
  1959   1744   1726 1
  1960   1745   1728 1
  1961   1746   1730 1
  1962   1747   1730 1
  1963   1748   1731 1
  1964   1749   1733 1
  1965   1750   1739 1
  1966   1773   1757 1
  1967   1774   1757 1
  1968   1775   1758 1
  1969   1776   1760 1
  1970   1777   1762 1
  1971   1778   1762 1
  1972   1779   1763 1
  1973   1780   1767 1
  1974   1781   1772 1
  1975   1805   1789 1
  1976   1806   1789 1
  1977   1807   1790 1
  1978   1808   1792 1
  1979   1809   1794 1
  1980   1810   1794 1
  1981   1811   1795 1
  1982   1812   1799 1
  1983   1813   1804 1
  1984   1836   1821 1
  1985   1837   1821 1
  1986   1838   1822 1
  1987   1839   1824 1
  1988   1840   1826 1
  1989   1841   1826 1
  1990   1842   1827 1
  1991   1843   1834 1
  1992   1844   1835 1
  1993   1868   1851 1
  1994   1869   1851 1
  1995   1870   1852 1
  1996   1871   1854 1
  1997   1872   1856 1
  1998   1873   1856 1
  1999   1874   1857 1
  2000   1875   1859 1
  2001   1876   1865 1
  2002   1898   1883 1
  2003   1899   1883 1
  2004   1900   1884 1
  2005   1901   1886 1
  2006   1902   1888 1
  2007   1903   1888 1
  2008   1904   1889 1
  2009   1905   1896 1
  2010   1906   1897 1
  2011   1304   1292 1
  2012   1305   1292 1
  2013   1369   1357 1
  2014   1370   1357 1
  2015   1527   1515 1
  2016   1528   1515 1
  2017   1589   1577 1
  2018   1590   1577 1
  2019   1622   1610 1
  2020   1623   1610 1
  2021   1687   1675 1
  2022   1688   1675 1
  2023   1845   1833 1
  2024   1846   1833 1
  2025   1907   1895 1
  2026   1908   1895 1
  2027   1401   1387 1
  2028   1402   1387 1
  2029   1433   1419 1
  2030   1434   1419 1
  2031   1559   1545 1
  2032   1560   1545 1
  2033   1719   1705 1
  2034   1720   1705 1
  2035   1751   1737 1
  2036   1752   1737 1
  2037   1877   1863 1
  2038   1878   1863 1
  2039   1335   1324 1
  2040   1336   1324 1
  2041   1337   1324 1
  2042   1464   1453 1
  2043   1465   1453 1
  2044   1466   1453 1
  2045   1496   1485 1
  2046   1497   1485 1
  2047   1498   1485 1
  2048   1653   1642 1
  2049   1654   1642 1
  2050   1655   1642 1
  2051   1782   1771 1
  2052   1783   1771 1
  2053   1784   1771 1
  2054   1814   1803 1
  2055   1815   1803 1
  2056   1816   1803 1
  2057   1569   1909 1
  2058   1591   2141 1
  2059   1917   1942 1
  2060   1950   1974 1
  2061   1982   2007 1
  2062   2047   2071 1
  2063   2079   2101 1
  2064   2109   2133 1
  2065   1909   1910 1
  2066   1909   1911 1
  2067   1909   1912 1
  2068   1912   1913 1
  2069   1913   1914 1
  2070   1914   1915 1
  2071   1914   1916 1
  2072   1915   1919 1
  2073   1916   1917 1
  2074   1916   1918 1
  2075   1918   1919 1
  2076   1919   1920 1
  2077   1920   1921 ar
  2078   1920   1930 ar
  2079   1921   1922 ar
  2080   1922   1923 ar
  2081   1923   1924 1
  2082   1923   1930 ar
  2083   1924   1925 2
  2084   1924   1926 am
  2085   1926   1927 1
  2086   1927   1928 2
  2087   1927   1929 2
  2088   1929   1930 1
  2089   1942   1943 1
  2090   1942   1944 1
  2091   1942   1945 1
  2092   1945   1946 1
  2093   1946   1947 1
  2094   1947   1948 1
  2095   1947   1949 1
  2096   1948   1952 1
  2097   1949   1950 1
  2098   1949   1951 1
  2099   1951   1952 1
  2100   1952   1953 1
  2101   1953   1954 am
  2102   1953   1961 1
  2103   1954   1955 2
  2104   1954   1956 am
  2105   1956   1957 am
  2106   1957   1958 2
  2107   1957   1959 1
  2108   1959   1960 1
  2109   1959   1961 2
  2110   1974   1975 1
  2111   1974   1976 1
  2112   1974   1977 1
  2113   1977   1978 1
  2114   1978   1979 1
  2115   1979   1980 1
  2116   1979   1981 1
  2117   1980   1984 1
  2118   1981   1982 1
  2119   1981   1983 1
  2120   1983   1984 1
  2121   1984   1985 1
  2122   1985   1986 ar
  2123   1985   1995 ar
  2124   1986   1987 ar
  2125   1987   1988 ar
  2126   1988   1989 1
  2127   1988   1995 ar
  2128   1989   1990 2
  2129   1989   1991 am
  2130   1991   1992 1
  2131   1992   1993 2
  2132   1992   1994 2
  2133   1994   1995 1
  2134   2007   2008 1
  2135   2007   2009 1
  2136   2007   2010 1
  2137   2010   2011 1
  2138   2011   2012 1
  2139   2012   2013 1
  2140   2012   2014 1
  2141   2013   2017 1
  2142   2014   2015 1
  2143   2014   2016 1
  2144   2016   2017 1
  2145   2017   2018 1
  2146   2018   2019 ar
  2147   2018   2027 ar
  2148   2019   2020 ar
  2149   2020   2021 ar
  2150   2021   2022 ar
  2151   2021   2027 ar
  2152   2022   2023 1
  2153   2022   2024 ar
  2154   2024   2025 ar
  2155   2025   2026 ar
  2156   2026   2027 ar
  2157   2039   2040 1
  2158   2039   2041 1
  2159   2039   2042 1
  2160   2042   2043 1
  2161   2043   2044 1
  2162   2044   2045 1
  2163   2044   2046 1
  2164   2045   2049 1
  2165   2046   2047 1
  2166   2046   2048 1
  2167   2048   2049 1
  2168   2049   2050 1
  2169   2050   2051 am
  2170   2050   2058 1
  2171   2051   2052 2
  2172   2051   2053 am
  2173   2053   2054 am
  2174   2054   2055 2
  2175   2054   2056 1
  2176   2056   2057 1
  2177   2056   2058 2
  2178   2071   2072 1
  2179   2071   2073 1
  2180   2071   2074 1
  2181   2074   2075 1
  2182   2075   2076 1
  2183   2076   2077 1
  2184   2076   2078 1
  2185   2077   2081 1
  2186   2078   2079 1
  2187   2078   2080 1
  2188   2080   2081 1
  2189   2081   2082 1
  2190   2082   2083 am
  2191   2082   2089 1
  2192   2083   2084 2
  2193   2083   2085 1
  2194   2085   2086 2
  2195   2086   2087 2
  2196   2086   2088 2
  2197   2088   2089 2
  2198   2101   2102 1
  2199   2101   2103 1
  2200   2101   2104 1
  2201   2104   2105 1
  2202   2105   2106 1
  2203   2106   2107 1
  2204   2106   2108 1
  2205   2107   2111 1
  2206   2108   2109 1
  2207   2108   2110 1
  2208   2110   2111 1
  2209   2111   2112 1
  2210   2112   2113 ar
  2211   2112   2121 ar
  2212   2113   2114 ar
  2213   2114   2115 ar
  2214   2115   2116 ar
  2215   2115   2121 ar
  2216   2116   2117 1
  2217   2116   2118 ar
  2218   2118   2119 ar
  2219   2119   2120 ar
  2220   2120   2121 ar
  2221   2133   2134 1
  2222   2133   2135 1
  2223   2133   2136 1
  2224   2136   2137 1
  2225   2137   2138 1
  2226   2138   2139 1
  2227   2138   2140 1
  2228   2139   2143 1
  2229   2140   2141 1
  2230   2140   2142 1
  2231   2142   2143 1
  2232   2143   2144 1
  2233   2144   2145 am
  2234   2144   2151 1
  2235   2145   2146 2
  2236   2145   2147 1
  2237   2147   2148 2
  2238   2148   2149 2
  2239   2148   2150 2
  2240   2150   2151 2
  2241   1931   1913 1
  2242   1932   1913 1
  2243   1933   1914 1
  2244   1934   1916 1
  2245   1935   1918 1
  2246   1936   1918 1
  2247   1937   1919 1
  2248   1938   1921 1
  2249   1939   1926 1
  2250   1962   1946 1
  2251   1963   1946 1
  2252   1964   1947 1
  2253   1965   1949 1
  2254   1966   1951 1
  2255   1967   1951 1
  2256   1968   1952 1
  2257   1969   1956 1
  2258   1970   1961 1
  2259   1996   1978 1
  2260   1997   1978 1
  2261   1998   1979 1
  2262   1999   1981 1
  2263   2000   1983 1
  2264   2001   1983 1
  2265   2002   1984 1
  2266   2003   1986 1
  2267   2004   1991 1
  2268   2028   2011 1
  2269   2029   2011 1
  2270   2030   2012 1
  2271   2031   2014 1
  2272   2032   2016 1
  2273   2033   2016 1
  2274   2034   2017 1
  2275   2035   2019 1
  2276   2036   2025 1
  2277   2059   2043 1
  2278   2060   2043 1
  2279   2061   2044 1
  2280   2062   2046 1
  2281   2063   2048 1
  2282   2064   2048 1
  2283   2065   2049 1
  2284   2066   2053 1
  2285   2067   2058 1
  2286   2090   2075 1
  2287   2091   2075 1
  2288   2092   2076 1
  2289   2093   2078 1
  2290   2094   2080 1
  2291   2095   2080 1
  2292   2096   2081 1
  2293   2097   2088 1
  2294   2098   2089 1
  2295   2122   2105 1
  2296   2123   2105 1
  2297   2124   2106 1
  2298   2125   2108 1
  2299   2126   2110 1
  2300   2127   2110 1
  2301   2128   2111 1
  2302   2129   2113 1
  2303   2130   2119 1
  2304   2152   2137 1
  2305   2153   2137 1
  2306   2154   2138 1
  2307   2155   2140 1
  2308   2156   2142 1
  2309   2157   2142 1
  2310   2158   2143 1
  2311   2159   2150 1
  2312   2160   2151 1
  2313   1940   1928 1
  2314   1941   1928 1
  2315   2005   1993 1
  2316   2006   1993 1
  2317   2099   2087 1
  2318   2100   2087 1
  2319   2161   2149 1
  2320   2162   2149 1
  2321   2037   2023 1
  2322   2038   2023 1
  2323   2131   2117 1
  2324   2132   2117 1
  2325   1971   1960 1
  2326   1972   1960 1
  2327   1973   1960 1
  2328   2068   2057 1
  2329   2069   2057 1
  2330   2070   2057 1
@<TRIPOS>MOLECULE
dna-seg-01-bp33
2100 2263 1 0 0
BIOPOLYMER
NO_CHARGES


@<TRIPOS>ATOM
      1 P        -10.2008     0.9714    78.8975 P.3       35 DA      0.0000
      2 OP1      -11.4959     0.5799    78.2305 O.co2     35 DA      0.0000
      3 OP2      -10.2598     2.1912    79.7285 O.co2     35 DA      0.0000
      4 O5'       -9.5998    -0.4078    79.4284 O.3       35 DA      0.0000
      5 C5'       -9.4154    -1.5575    78.6041 C.3       35 DA      0.0000
      6 C4'       -8.2135    -2.3249    79.1264 C.3       35 DA      0.0000
      7 O4'       -7.0697    -1.5187    79.1545 O.3       35 DA      0.0000
      8 C3'       -8.3380    -2.9745    80.4937 C.3       35 DA      0.0000
      9 O3'       -8.2460    -4.3968    80.4158 O.3       35 DA      0.0000
     10 C2'       -7.2411    -2.2945    81.3224 C.3       35 DA      0.0000
     11 C1'       -6.2503    -1.8264    80.3286 C.3       35 DA      0.0000
     12 N9        -5.4333    -0.6290    80.5967 N.ar      35 DA      0.0000
     13 C8        -5.8072     0.6880    80.7118 C.ar      35 DA      0.0000
     14 N7        -4.8051     1.5177    80.8811 N.ar      35 DA      0.0000
     15 C5        -3.6837     0.6950    80.8441 C.ar      35 DA      0.0000
     16 C6        -2.2940     0.9813    80.9646 C.ar      35 DA      0.0000
     17 N6        -1.7693     2.1852    81.1562 N.pl3     35 DA      0.0000
     18 N1        -1.4552    -0.1006    80.8664 N.ar      35 DA      0.0000
     19 C2        -1.9582    -1.3550    80.6773 C.ar      35 DA      0.0000
     20 N3        -3.2387    -1.6908    80.5695 N.ar      35 DA      0.0000
     21 C4        -4.0503    -0.6182    80.6613 C.ar      35 DA      0.0000
     22 H5'       -9.2371    -1.2486    77.5740 H         35 DA      0.0000
     23 H5''     -10.3027    -2.1888    78.6500 H         35 DA      0.0000
     24 H4'       -8.0170    -3.1258    78.4137 H         35 DA      0.0000
     25 H3'       -9.3073    -2.7112    80.9169 H         35 DA      0.0000
     26 H2'       -7.6494    -1.4534    81.8827 H         35 DA      0.0000
     27 H2''      -6.7826    -3.0128    82.0020 H         35 DA      0.0000
     28 H1'       -5.5854    -2.6542    80.0826 H         35 DA      0.0000
     29 H8        -6.8364     1.0121    80.6670 H         35 DA      0.0000
     30 H2        -1.2400    -2.1586    80.6082 H         35 DA      0.0000
     31 H61       -2.3193     2.9671    81.4824 H         35 DA      0.0000
     32 H62       -0.7865     2.3243    80.9694 H         35 DA      0.0000
     33 P         -9.0355    -5.4488    81.3721 P.3       36 DT      0.0000
     34 OP1       -9.5829    -6.6272    80.5748 O.co2     36 DT      0.0000
     35 OP2      -10.0106    -4.7617    82.1927 O.co2     36 DT      0.0000
     36 O5'       -7.7911    -6.1520    82.1858 O.3       36 DT      0.0000
     37 C5'       -6.6602    -6.3814    81.2407 C.3       36 DT      0.0000
     38 C4'       -5.4326    -6.0003    82.0284 C.3       36 DT      0.0000
     39 O4'       -5.2917    -4.6106    82.2204 O.3       36 DT      0.0000
     40 C3'       -5.4393    -6.6040    83.4450 C.3       36 DT      0.0000
     41 O3'       -4.6543    -7.7820    83.4467 O.3       36 DT      0.0000
     42 C2'       -4.9183    -5.4841    84.3422 C.3       36 DT      0.0000
     43 C1'       -4.3511    -4.5208    83.3776 C.3       36 DT      0.0000
     44 N1        -4.2419    -3.1110    83.7174 N.am      36 DT      0.0000
     45 C2        -2.9569    -2.5955    83.8553 C.2       36 DT      0.0000
     46 O2        -1.9895    -3.3406    83.7673 O.2       36 DT      0.0000
     47 N3        -2.8210    -1.2641    84.1093 N.am      36 DT      0.0000
     48 C4        -3.8901    -0.4231    84.2295 C.2       36 DT      0.0000
     49 O4        -3.6810     0.8057    84.4846 O.2       36 DT      0.0000
     50 C5        -5.2034    -0.9724    84.0579 C.2       36 DT      0.0000
     51 C7        -6.4141    -0.0852    84.1454 C.3       36 DT      0.0000
     52 C6        -5.3318    -2.2858    83.8021 C.2       36 DT      0.0000
     53 H5'       -6.6157    -7.4280    80.9390 H         36 DT      0.0000
     54 H5''      -6.7625    -5.7396    80.3657 H         36 DT      0.0000
     55 H4'       -4.5534    -6.3679    81.4993 H         36 DT      0.0000
     56 H3'       -6.4625    -6.8498    83.7293 H         36 DT      0.0000
     57 H2'       -5.7281    -5.0332    84.9156 H         36 DT      0.0000
     58 H2''      -4.1415    -5.8592    85.0087 H         36 DT      0.0000
     59 H1'       -3.3722    -4.8801    83.0603 H         36 DT      0.0000
     60 H3        -1.8913    -0.8833    84.2130 H         36 DT      0.0000
     61 H6        -6.3188    -2.7006    83.6600 H         36 DT      0.0000
     62 H71       -6.1015     0.9370    84.3584 H         36 DT      0.0000
     63 H72       -6.9519    -0.1103    83.1976 H         36 DT      0.0000
     64 H73       -7.0671    -0.4391    84.9432 H         36 DT      0.0000
     65 P         -4.5134    -8.8614    84.5533 P.3       37 DT      0.0000
     66 OP1       -4.0341   -10.2031    83.9412 O.co2     37 DT      0.0000
     67 OP2       -5.8528    -8.9898    85.1832 O.co2     37 DT      0.0000
     68 O5'       -3.2671    -8.3716    85.4356 O.3       37 DT      0.0000
     69 C5'       -2.0057    -8.4864    84.7238 C.3       37 DT      0.0000
     70 C4'       -0.9958    -7.6257    85.4000 C.3       37 DT      0.0000
     71 O4'       -1.3143    -6.2398    85.3767 O.3       37 DT      0.0000
     72 C3'       -0.7289    -7.9936    86.8666 C.3       37 DT      0.0000
     73 O3'        0.6611    -7.9722    87.1307 O.3       37 DT      0.0000
     74 C2'       -1.4198    -6.8213    87.6030 C.3       37 DT      0.0000
     75 C1'       -0.9349    -5.7059    86.6994 C.3       37 DT      0.0000
     76 N1        -1.6154    -4.4592    86.9971 N.am      37 DT      0.0000
     77 C2        -0.8671    -3.2945    87.0519 C.2       37 DT      0.0000
     78 O2         0.3487    -3.3577    86.8635 O.2       37 DT      0.0000
     79 N3        -1.5156    -2.1215    87.3178 N.am      37 DT      0.0000
     80 C4        -2.8598    -2.0664    87.5248 C.2       37 DT      0.0000
     81 O4        -3.3933    -0.9422    87.7481 O.2       37 DT      0.0000
     82 C5        -3.6203    -3.2702    87.4598 C.2       37 DT      0.0000
     83 C7        -5.1063    -3.2905    87.6697 C.3       37 DT      0.0000
     84 C6        -2.9672    -4.4133    87.1986 C.2       37 DT      0.0000
     85 H5'       -1.6707    -9.5236    84.7363 H         37 DT      0.0000
     86 H5''      -2.1360    -8.1566    83.6931 H         37 DT      0.0000
     87 H4'       -0.0561    -7.7488    84.8615 H         37 DT      0.0000
     88 H3'       -1.1744    -8.9532    87.1291 H         37 DT      0.0000
     89 H2'       -2.5059    -6.9134    87.6017 H         37 DT      0.0000
     90 H2''      -1.0333    -6.7069    88.6157 H         37 DT      0.0000
     91 H1'        0.1459    -5.5865    86.7750 H         37 DT      0.0000
     92 H3        -0.9795    -1.2667    87.3622 H         37 DT      0.0000
     93 H6        -3.5313    -5.3327    87.1456 H         37 DT      0.0000
     94 H71       -5.4596    -2.2787    87.8686 H         37 DT      0.0000
     95 H72       -5.5941    -3.6759    86.7744 H         37 DT      0.0000
     96 H73       -5.3447    -3.9319    88.5181 H         37 DT      0.0000
     97 P          1.7159    -8.9624    87.7386 P.3       38 DC      0.0000
     98 OP1        2.6472    -9.5032    86.6707 O.co2     38 DC      0.0000
     99 OP2        0.9280    -9.9686    88.4736 O.co2     38 DC      0.0000
    100 O5'        2.5635    -7.8401    88.5646 O.3       38 DC      0.0000
    101 C5'        2.8788    -6.8248    87.5424 C.3       38 DC      0.0000
    102 C4'        3.6040    -5.7087    88.2389 C.3       38 DC      0.0000
    103 O4'        2.7850    -4.6081    88.4858 O.3       38 DC      0.0000
    104 C3'        4.3115    -6.1034    89.5303 C.3       38 DC      0.0000
    105 O3'        5.6952    -5.7875    89.4507 O.3       38 DC      0.0000
    106 C2'        3.4630    -5.3811    90.5791 C.3       38 DC      0.0000
    107 C1'        2.9390    -4.1881    89.8827 C.3       38 DC      0.0000
    108 N1         1.5745    -3.7666    90.2148 N.am      38 DC      0.0000
    109 C2         1.4027    -2.4079    90.4706 C.2       38 DC      0.0000
    110 O2         2.3605    -1.6286    90.4751 O.2       38 DC      0.0000
    111 N3         0.1299    -1.9718    90.7444 N.2       38 DC      0.0000
    112 C4        -0.9333    -2.8262    90.7345 C.2       38 DC      0.0000
    113 N4        -2.1250    -2.3086    91.0114 N.pl3     38 DC      0.0000
    114 C5        -0.7462    -4.1981    90.4565 C.2       38 DC      0.0000
    115 C6         0.5102    -4.6113    90.1917 C.2       38 DC      0.0000
    116 H5'        3.5132    -7.2575    86.7687 H         38 DC      0.0000
    117 H5''       1.9577    -6.4477    87.0982 H         38 DC      0.0000
    118 H4'        4.3799    -5.3689    87.5529 H         38 DC      0.0000
    119 H3'        4.2053    -7.1786    89.6736 H         38 DC      0.0000
    120 H2'        2.6458    -6.0184    90.9170 H         38 DC      0.0000
    121 H2''       4.0825    -5.0823    91.4246 H         38 DC      0.0000
    122 H1'        3.6350    -3.3532    89.9637 H         38 DC      0.0000
    123 H5        -1.5762    -4.8892    90.4559 H         38 DC      0.0000
    124 H6         0.6765    -5.6513    89.9527 H         38 DC      0.0000
    125 H41       -2.2134    -1.3224    91.2106 H         38 DC      0.0000
    126 H42       -2.9427    -2.9014    91.0227 H         38 DC      0.0000
    127 P          6.8714    -6.3737    90.4027 P.3       39 DA      0.0000
    128 OP1        8.1617    -6.3011    89.6090 O.co2     39 DA      0.0000
    129 OP2        6.5206    -7.7664    90.7482 O.co2     39 DA      0.0000
    130 O5'        6.8737    -5.3609    91.6997 O.3       39 DA      0.0000
    131 C5'        6.9747    -3.9341    91.4045 C.3       39 DA      0.0000
    132 C4'        6.8643    -3.1323    92.6598 C.3       39 DA      0.0000
    133 O4'        5.5765    -2.5579    92.9019 O.3       39 DA      0.0000
    134 C3'        7.1267    -3.9021    93.9650 C.3       39 DA      0.0000
    135 O3'        7.4354    -2.9602    94.9949 O.3       39 DA      0.0000
    136 C2'        5.7276    -4.5132    94.1796 C.3       39 DA      0.0000
    137 C1'        4.9389    -3.2121    93.9963 C.3       39 DA      0.0000
    138 N9         3.5220    -3.5206    93.9020 N.ar      39 DA      0.0000
    139 C8         2.8778    -4.7212    93.7862 C.ar      39 DA      0.0000
    140 N7         1.5590    -4.6471    93.7676 N.ar      39 DA      0.0000
    141 C5         1.3173    -3.2849    93.8751 C.ar      39 DA      0.0000
    142 C6         0.1166    -2.5338    93.9096 C.ar      39 DA      0.0000
    143 N6        -1.0948    -3.0536    93.8244 N.pl3     39 DA      0.0000
    144 N1         0.2564    -1.1820    94.0422 N.ar      39 DA      0.0000
    145 C2         1.4938    -0.6004    94.1224 C.ar      39 DA      0.0000
    146 N3         2.6625    -1.2364    94.0925 N.ar      39 DA      0.0000
    147 C4         2.5046    -2.5772    93.9695 C.ar      39 DA      0.0000
    148 H5'        7.9366    -3.7324    90.9333 H         39 DA      0.0000
    149 H5''       6.1729    -3.6492    90.7232 H         39 DA      0.0000
    150 H4'        7.5871    -2.3186    92.6009 H         39 DA      0.0000
    151 H3'        7.8995    -4.6622    93.8513 H         39 DA      0.0000
    152 H2'        5.4785    -5.2631    93.4288 H         39 DA      0.0000
    153 H2''       5.6158    -4.9079    95.1895 H         39 DA      0.0000
    154 H1'        5.0900    -2.6008    94.8860 H         39 DA      0.0000
    155 H8         3.4074    -5.6597    93.7152 H         39 DA      0.0000
    156 H2         1.5239     0.4748    94.2188 H         39 DA      0.0000
    157 H61       -2.0249    -2.7034    94.0044 H         39 DA      0.0000
    158 H62       -1.0898    -4.0133    93.5096 H         39 DA      0.0000
    159 P          8.8985    -2.3277    95.1354 P.3       40 DC      0.0000
    160 OP1        9.7097    -2.4412    93.8903 O.co2     40 DC      0.0000
    161 OP2        9.4750    -3.1124    96.2783 O.co2     40 DC      0.0000
    162 O5'        8.6072    -0.7949    95.4186 O.3       40 DC      0.0000
    163 C5'        8.3162     0.1341    94.3308 C.3       40 DC      0.0000
    164 C4'        7.4251     1.1630    95.0358 C.3       40 DC      0.0000
    165 O4'        6.2097     0.5226    95.3478 O.3       40 DC      0.0000
    166 C3'        8.0076     1.6872    96.3457 C.3       40 DC      0.0000
    167 O3'        8.0303     3.1310    96.4136 O.3       40 DC      0.0000
    168 C2'        7.1289     1.0420    97.4279 C.3       40 DC      0.0000
    169 C1'        5.8234     0.9246    96.7517 C.3       40 DC      0.0000
    170 N1         4.8737    -0.1275    97.1046 N.am      40 DC      0.0000
    171 C2         3.5329     0.2517    97.0777 C.2       40 DC      0.0000
    172 O2         3.1756     1.4046    96.8707 O.2       40 DC      0.0000
    173 N3         2.6061    -0.7110    97.3308 N.2       40 DC      0.0000
    174 C4         2.9433    -2.0024    97.5641 C.2       40 DC      0.0000
    175 N4         1.9456    -2.8537    97.7951 N.pl3     40 DC      0.0000
    176 C5         4.3144    -2.3798    97.5707 C.2       40 DC      0.0000
    177 C6         5.2233    -1.4245    97.3213 C.2       40 DC      0.0000
    178 H5'        9.2266     0.5937    93.9460 H         40 DC      0.0000
    179 H5''       7.7694    -0.3666    93.5318 H         40 DC      0.0000
    180 H4'        7.2331     1.9989    94.3631 H         40 DC      0.0000
    181 H3'        9.0264     1.3143    96.4516 H         40 DC      0.0000
    182 H2'        7.5130     0.0630    97.7149 H         40 DC      0.0000
    183 H2''       7.0524     1.6937    98.2982 H         40 DC      0.0000
    184 H1'        5.3213     1.8920    96.7385 H         40 DC      0.0000
    185 H5         4.6133    -3.3984    97.7692 H         40 DC      0.0000
    186 H6         6.2685    -1.6945    97.2915 H         40 DC      0.0000
    187 H41        0.9901    -2.5268    97.7840 H         40 DC      0.0000
    188 H42        2.1446    -3.8263    97.9812 H         40 DC      0.0000
    189 P         -8.2990    -1.7813    99.3731 P.3       40 DG      0.0000
    190 OP1       -9.7353    -2.1580    99.5519 O.co2     40 DG      0.0000
    191 OP2       -7.6007    -2.5906    98.2883 O.co2     40 DG      0.0000
    192 O5'       -8.1838    -0.1524    99.1659 O.3       40 DG      0.0000
    193 C5'       -7.6646     0.6719   100.2616 C.3       40 DG      0.0000
    194 C4'       -6.8102     1.7670    99.6274 C.3       40 DG      0.0000
    195 O4'       -5.4630     1.3927    99.5315 O.3       40 DG      0.0000
    196 C3'       -7.2441     2.1718    98.2210 C.3       40 DG      0.0000
    197 O3'       -7.1562     3.5906    97.9540 O.3       40 DG      0.0000
    198 C2'       -6.2905     1.3680    97.3187 C.3       40 DG      0.0000
    199 C1'       -5.0143     1.4131    98.1426 C.3       40 DG      0.0000
    200 N9        -4.1650     0.2411    97.8693 N.ar      40 DG      0.0000
    201 C8        -4.5556    -1.0675    97.7126 C.ar      40 DG      0.0000
    202 N7        -3.5675    -1.8940    97.4942 N.ar      40 DG      0.0000
    203 C5        -2.4433    -1.0771    97.5190 C.ar      40 DG      0.0000
    204 C6        -1.0635    -1.3759    97.3625 C.2       40 DG      0.0000
    205 O6        -0.5660    -2.4938    97.1657 O.2       40 DG      0.0000
    206 N1        -0.2354    -0.2840    97.4494 N.am      40 DG      0.0000
    207 C2        -0.6990     0.9706    97.6701 C.2       40 DG      0.0000
    208 N2         0.2215     1.9288    97.7334 N.pl3     40 DG      0.0000
    209 N3        -1.9854     1.3055    97.8278 N.2       40 DG      0.0000
    210 C4        -2.7973     0.2337    97.7445 C.ar      40 DG      0.0000
    211 H5'       -8.4891     1.1160   100.8194 H         40 DG      0.0000
    212 H5''      -7.0527     0.0625   100.9266 H         40 DG      0.0000
    213 H4'       -6.8689     2.6498   100.2641 H         40 DG      0.0000
    214 H3'       -8.2673     1.8370    98.0505 H         40 DG      0.0000
    215 H2'       -6.6399     0.3455    97.1761 H         40 DG      0.0000
    216 H2''      -6.1509     1.8674    96.3600 H         40 DG      0.0000
    217 H1'       -4.4655     2.3322    97.9373 H         40 DG      0.0000
    218 H8        -5.5868    -1.3842    97.7653 H         40 DG      0.0000
    219 H1         0.7597    -0.4212    97.3446 H         40 DG      0.0000
    220 H21        1.1983     1.6991    97.6184 H         40 DG      0.0000
    221 H22       -0.0564     2.8860    97.8966 H         40 DG      0.0000
    222 P         -6.8643     3.9928    96.4306 P.3       39 DT      0.0000
    223 OP1       -7.4228     5.3346    96.0397 O.co2     39 DT      0.0000
    224 OP2       -7.5705     2.8920    95.7300 O.co2     39 DT      0.0000
    225 O5'       -5.2675     4.0026    96.2997 O.3       39 DT      0.0000
    226 C5'       -4.5919     5.2730    96.5673 C.3       39 DT      0.0000
    227 C4'       -3.2817     5.2868    95.8102 C.3       39 DT      0.0000
    228 O4'       -2.6467     4.0210    95.7830 O.3       39 DT      0.0000
    229 C3'       -3.4381     5.7020    94.3555 C.3       39 DT      0.0000
    230 O3'       -2.3614     6.5274    93.8604 O.3       39 DT      0.0000
    231 C2'       -3.5091     4.3752    93.6327 C.3       39 DT      0.0000
    232 C1'       -2.4499     3.6122    94.4108 C.3       39 DT      0.0000
    233 N1        -2.7610     2.1821    94.2595 N.am      39 DT      0.0000
    234 C2        -1.6867     1.3048    94.3663 C.2       39 DT      0.0000
    235 O2        -0.5526     1.7310    94.5560 O.2       39 DT      0.0000
    236 N3        -1.9565    -0.0298    94.2461 N.am      39 DT      0.0000
    237 C4        -3.2194    -0.4933    94.0285 C.2       39 DT      0.0000
    238 O4        -3.3727    -1.7558    93.9309 O.2       39 DT      0.0000
    239 C5        -4.2991     0.4293    93.9221 C.2       39 DT      0.0000
    240 C7        -5.6965    -0.0709    93.6932 C.3       39 DT      0.0000
    241 C6        -4.0297     1.7317    94.0439 C.2       39 DT      0.0000
    242 H5'       -5.2183     6.1003    96.2336 H         39 DT      0.0000
    243 H5''      -4.3988     5.3675    97.6359 H         39 DT      0.0000
    244 H4'       -2.6121     5.9950    96.2982 H         39 DT      0.0000
    245 H3'       -4.3832     6.2306    94.2315 H         39 DT      0.0000
    246 H2'       -4.4925     3.9140    93.7242 H         39 DT      0.0000
    247 H2''      -3.2236     4.4838    92.5863 H         39 DT      0.0000
    248 H1'       -1.4446     3.8460    94.0601 H         39 DT      0.0000
    249 H3        -1.1976    -0.6920    94.3208 H         39 DT      0.0000
    250 H6        -4.8367     2.4456    93.9697 H         39 DT      0.0000
    251 H71       -5.6869    -1.1587    93.6245 H         39 DT      0.0000
    252 H72       -6.3323     0.2348    94.5241 H         39 DT      0.0000
    253 H73       -6.0851     0.3483    92.7650 H         39 DT      0.0000
    254 P         -3.0544     7.8191    93.0820 P.3       38 DG      0.0000
    255 OP1       -3.2121     9.0225    93.9533 O.co2     38 DG      0.0000
    256 OP2       -4.3276     7.1729    92.6765 O.co2     38 DG      0.0000
    257 O5'       -1.9238     8.1480    92.0012 O.3       38 DG      0.0000
    258 C5'       -0.7413     8.8727    92.4247 C.3       38 DG      0.0000
    259 C4'        0.4283     8.0050    91.9770 C.3       38 DG      0.0000
    260 O4'        0.1433     6.6472    92.2477 O.3       38 DG      0.0000
    261 C3'        0.7620     8.1156    90.4892 C.3       38 DG      0.0000
    262 O3'        2.1125     8.4882    90.2807 O.3       38 DG      0.0000
    263 C2'        0.3583     6.7703    89.9125 C.3       38 DG      0.0000
    264 C1'        0.4930     5.8449    91.0987 C.3       38 DG      0.0000
    265 N9        -0.4133     4.7000    90.9751 N.ar      38 DG      0.0000
    266 C8        -1.7701     4.7056    90.8162 C.ar      38 DG      0.0000
    267 N7        -2.2972     3.5080    90.7382 N.ar      38 DG      0.0000
    268 C5        -1.2097     2.6504    90.8757 C.ar      38 DG      0.0000
    269 C6        -1.1161     1.2336    90.8852 C.2       38 DG      0.0000
    270 O6        -2.0376     0.4298    90.7861 O.2       38 DG      0.0000
    271 N1         0.1522     0.7488    91.0341 N.am      38 DG      0.0000
    272 C2         1.2398     1.5777    91.1670 C.2       38 DG      0.0000
    273 N2         2.4201     0.9726    91.3027 N.pl3     38 DG      0.0000
    274 N3         1.2212     2.9145    91.1713 N.2       38 DG      0.0000
    275 C4        -0.0421     3.3803    91.0206 C.ar      38 DG      0.0000
    276 H5'       -0.6986     9.8510    91.9460 H         38 DG      0.0000
    277 H5''      -0.7351     8.9832    93.5090 H         38 DG      0.0000
    278 H4'        1.3097     8.2928    92.5500 H         38 DG      0.0000
    279 H3'        0.1233     8.8822    90.0507 H         38 DG      0.0000
    280 H2'       -0.6680     6.7922    89.5462 H         38 DG      0.0000
    281 H2''       1.0422     6.4744    89.1170 H         38 DG      0.0000
    282 H1'        1.5226     5.4978    91.1857 H         38 DG      0.0000
    283 H8        -2.3541     5.6124    90.7601 H         38 DG      0.0000
    284 H1         0.2950    -0.2509    91.0470 H         38 DG      0.0000
    285 H21        2.4734    -0.0360    91.3036 H         38 DG      0.0000
    286 H22        3.2609     1.5227    91.4045 H         38 DG      0.0000
    287 P          3.3077     7.9242    89.4144 P.3       37 DA      0.0000
    288 OP1        4.6233     8.0325    90.1958 O.co2     37 DA      0.0000
    289 OP2        3.3497     8.7733    88.2217 O.co2     37 DA      0.0000
    290 O5'        3.0295     6.3285    89.2396 O.3       37 DA      0.0000
    291 C5'        3.5316     5.5592    90.3961 C.3       37 DA      0.0000
    292 C4'        4.6053     4.6401    89.8683 C.3       37 DA      0.0000
    293 O4'        4.1344     3.3351    89.6460 O.3       37 DA      0.0000
    294 C3'        5.1771     5.1000    88.5278 C.3       37 DA      0.0000
    295 O3'        6.5736     4.9409    88.4526 O.3       37 DA      0.0000
    296 C2'        4.3248     4.3350    87.5312 C.3       37 DA      0.0000
    297 C1'        3.8073     3.1235    88.2550 C.3       37 DA      0.0000
    298 N9         2.3646     2.9303    88.0295 N.ar      37 DA      0.0000
    299 C8         1.3824     3.8789    87.8432 C.ar      37 DA      0.0000
    300 N7         0.1819     3.3841    87.6473 N.ar      37 DA      0.0000
    301 C5         0.3853     2.0125    87.7341 C.ar      37 DA      0.0000
    302 C6        -0.5128     0.9249    87.6285 C.ar      37 DA      0.0000
    303 N6        -1.8100     1.0601    87.4160 N.pl3     37 DA      0.0000
    304 N1         0.0330    -0.3165    87.7522 N.ar      37 DA      0.0000
    305 C2         1.3695    -0.4862    87.9767 C.ar      37 DA      0.0000
    306 N3         2.2653     0.4920    88.0926 N.ar      37 DA      0.0000
    307 C4         1.7110     1.7208    87.9565 C.ar      37 DA      0.0000
    308 H5'        3.9482     6.2337    91.1441 H         37 DA      0.0000
    309 H5''       2.7226     4.9736    90.8327 H         37 DA      0.0000
    310 H4'        5.4158     4.5982    90.5959 H         37 DA      0.0000
    311 H3'        4.9541     6.1610    88.4147 H         37 DA      0.0000
    312 H2'        4.9269     4.0331    86.6743 H         37 DA      0.0000
    313 H2''       3.4916     4.9553    87.2007 H         37 DA      0.0000
    314 H1'        4.3414     2.2435    87.8969 H         37 DA      0.0000
    315 H8         1.5831     4.9400    87.8571 H         37 DA      0.0000
    316 H2         1.7304    -1.5000    88.0680 H         37 DA      0.0000
    317 H61       -2.4668     0.3607    87.7314 H         37 DA      0.0000
    318 H62       -2.1506     1.8773    86.9298 H         37 DA      0.0000
    319 P          7.5113     4.4780    87.2680 P.3       36 DA      0.0000
    320 OP1        8.9540     4.2108    87.7879 O.co2     36 DA      0.0000
    321 OP2        7.5398     5.6468    86.3343 O.co2     36 DA      0.0000
    322 O5'        6.9805     3.0825    86.7653 O.3       36 DA      0.0000
    323 C5'        7.6081     1.8661    87.2211 C.3       36 DA      0.0000
    324 C4'        6.9123     0.7202    86.5192 C.3       36 DA      0.0000
    325 O4'        5.5270     0.8753    86.3985 O.3       36 DA      0.0000
    326 C3'        7.4446     0.4547    85.1117 C.3       36 DA      0.0000
    327 O3'        8.0967    -0.8289    85.0802 O.3       36 DA      0.0000
    328 C2'        6.2268     0.6740    84.2121 C.3       36 DA      0.0000
    329 C1'        5.0733     0.3435    85.1099 C.3       36 DA      0.0000
    330 N9         3.8059     1.0016    84.8103 N.ar      36 DA      0.0000
    331 C8         3.5424     2.3417    84.6156 C.ar      36 DA      0.0000
    332 N7         2.2718     2.6080    84.4101 N.ar      36 DA      0.0000
    333 C5         1.6520     1.3758    84.4847 C.ar      36 DA      0.0000
    334 C6         0.2992     0.9906    84.3512 C.ar      36 DA      0.0000
    335 N6        -0.6926     1.8420    84.1080 N.pl3     36 DA      0.0000
    336 N1         0.0565    -0.3513    84.5000 N.ar      36 DA      0.0000
    337 C2         1.0399    -1.2365    84.7525 C.ar      36 DA      0.0000
    338 N3         2.3370    -0.9462    84.8914 N.ar      36 DA      0.0000
    339 C4         2.5729     0.3766    84.7442 C.ar      36 DA      0.0000
    340 H5'        8.6677     1.8732    86.9660 H         36 DA      0.0000
    341 H5''       7.4871     1.7682    88.2999 H         36 DA      0.0000
    342 H4'        7.0893    -0.1789    87.1093 H         36 DA      0.0000
    343 H3'        8.1848     1.2195    84.8767 H         36 DA      0.0000
    344 H2'        6.1734     1.7083    83.8722 H         36 DA      0.0000
    345 H2''       6.2544    -0.0061    83.3608 H         36 DA      0.0000
    346 H1'        4.9361    -0.7362    85.1710 H         36 DA      0.0000
    347 H8         4.3094     3.1019    84.6305 H         36 DA      0.0000
    348 H2         0.7546    -2.2734    84.8516 H         36 DA      0.0000
    349 H61       -1.6082     1.5333    84.4020 H         36 DA      0.0000
    350 H62       -0.5411     2.7348    83.6607 H         36 DA      0.0000
    351 P          8.7340    -1.3462    83.6953 P.3       35 DT      0.0000
    352 OP1        9.6699    -2.5141    83.7534 O.co2     35 DT      0.0000
    353 OP2        9.3282    -0.0738    83.1826 O.co2     35 DT      0.0000
    354 O5'        7.3308    -1.9067    82.9921 O.3       35 DT      0.0000
    355 C5'        6.5401    -2.6001    84.0044 C.3       35 DT      0.0000
    356 C4'        5.6010    -3.5421    83.3215 C.3       35 DT      0.0000
    357 O4'        4.3188    -3.0193    83.1411 O.3       35 DT      0.0000
    358 C3'        6.0808    -4.0215    81.9602 C.3       35 DT      0.0000
    359 O3'        5.7431    -5.3881    81.6929 O.3       35 DT      0.0000
    360 C2'        5.3801    -2.9896    81.0669 C.3       35 DT      0.0000
    361 C1'        4.0106    -2.9099    81.7069 C.3       35 DT      0.0000
    362 N1         3.3884    -1.5924    81.4770 N.am      35 DT      0.0000
    363 C2         2.0107    -1.5488    81.3553 C.2       35 DT      0.0000
    364 O2         1.3350    -2.5783    81.3921 O.2       35 DT      0.0000
    365 N3         1.4193    -0.3260    81.1879 N.am      35 DT      0.0000
    366 C4         2.1449     0.8232    81.1394 C.2       35 DT      0.0000
    367 O4         1.5166     1.9079    80.9539 O.2       35 DT      0.0000
    368 C5         3.5587     0.7584    81.2878 C.2       35 DT      0.0000
    369 C7         4.3967     2.0136    81.2357 C.3       35 DT      0.0000
    370 C6         4.1205    -0.4427    81.4608 C.2       35 DT      0.0000
    371 H5'        7.2018    -3.1586    84.6665 H         35 DT      0.0000
    372 H5''       5.9712    -1.8735    84.5845 H         35 DT      0.0000
    373 H4'        5.5049    -4.4214    83.9585 H         35 DT      0.0000
    374 H3'        7.1607    -3.8922    81.8882 H         35 DT      0.0000
    375 H2'        5.8895    -2.0265    81.0975 H         35 DT      0.0000
    376 H2''       5.3060    -3.3540    80.0423 H         35 DT      0.0000
    377 H1'        3.3645    -3.7218    81.3730 H         35 DT      0.0000
    378 H3         0.4146    -0.2756    81.0978 H         35 DT      0.0000
    379 H6         5.1907    -0.5039    81.5922 H         35 DT      0.0000
    380 H71        4.7983     2.1415    80.2305 H         35 DT      0.0000
    381 H72        5.2184     1.9315    81.9473 H         35 DT      0.0000
    382 H73        3.7786     2.8740    81.4922 H         35 DT      0.0000
    383 P          8.4155     5.4369   101.4146 P.3       41 DG      0.0000
    384 OP1        9.8948     5.5527   101.4131 O.co2     41 DG      0.0000
    385 OP2        8.0547     4.3817   102.4703 O.co2     41 DG      0.0000
    386 O5'        7.5893     6.7850   101.5930 O.3       41 DG      0.0000
    387 C5'        6.9082     7.5720   100.5930 C.3       41 DG      0.0000
    388 C4'        5.5070     7.8576   101.0918 C.3       41 DG      0.0000
    389 O4'        4.5841     6.8758   100.6727 O.3       41 DG      0.0000
    390 C3'        5.3074     8.0301   102.5840 C.3       41 DG      0.0000
    391 O3'        4.6518     9.2888   102.8960 O.3       41 DG      0.0000
    392 C2'        4.5044     6.8143   103.0059 C.3       41 DG      0.0000
    393 C1'        3.7609     6.4277   101.7503 C.3       41 DG      0.0000
    394 N9         3.5418     4.9702   101.7212 N.ar      41 DG      0.0000
    395 C8         4.4340     3.9495   101.9501 C.ar      41 DG      0.0000
    396 N7         3.9095     2.7481   101.8604 N.ar      41 DG      0.0000
    397 C5         2.5757     2.9920   101.5434 C.ar      41 DG      0.0000
    398 C6         1.4842     2.1175   101.3175 C.2       41 DG      0.0000
    399 O6         1.4767     0.8863   101.3387 O.2       41 DG      0.0000
    400 N1         0.2946     2.7316   101.0360 N.am      41 DG      0.0000
    401 C2         0.1609     4.0178   100.9753 C.2       41 DG      0.0000
    402 N2        -1.0412     4.3279   100.6785 N.pl3     41 DG      0.0000
    403 N3         1.1733     4.9599   101.1840 N.2       41 DG      0.0000
    404 C4         2.3361     4.3506   101.4566 C.ar      41 DG      0.0000
    405 H5'        7.4417     8.5092   100.4343 H         41 DG      0.0000
    406 H5''       6.8587     7.0146    99.6577 H         41 DG      0.0000
    407 H4'        5.1970     8.7935   100.6271 H         41 DG      0.0000
    408 H3'        6.2787     8.0033   103.0780 H         41 DG      0.0000
    409 H2'        5.1613     6.0083   103.3329 H         41 DG      0.0000
    410 H2''       3.8028     7.0778   103.7974 H         41 DG      0.0000
    411 H1'        2.8013     6.9438   101.7183 H         41 DG      0.0000
    412 H8         5.4747     4.1202   102.1832 H         41 DG      0.0000
    413 H1        -0.5171     2.1546   100.8676 H         41 DG      0.0000
    414 H21       -1.7288     3.6024   100.5342 H         41 DG      0.0000
    415 H22       -1.3047     5.2986   100.5881 H         41 DG      0.0000
    416 P          4.0626     9.6122   104.3246 P.3       42 DT      0.0000
    417 OP1        4.2819    11.0124   104.8362 O.co2     42 DT      0.0000
    418 OP2        4.9186     8.7215   105.2432 O.co2     42 DT      0.0000
    419 O5'        2.5961     9.1109   104.3531 O.3       42 DT      0.0000
    420 C5'        1.4511     9.9956   104.2092 C.3       42 DT      0.0000
    421 C4'        0.2489     9.0765   104.2667 C.3       42 DT      0.0000
    422 O4'        0.5896     7.7355   103.9915 O.3       42 DT      0.0000
    423 C3'       -0.4908     9.0212   105.5794 C.3       42 DT      0.0000
    424 O3'       -1.8084     9.5582   105.3912 O.3       42 DT      0.0000
    425 C2'       -0.5365     7.5446   105.9716 C.3       42 DT      0.0000
    426 C1'       -0.4197     6.8917   104.6189 C.3       42 DT      0.0000
    427 N1         0.1377     5.5425   104.7155 N.am      42 DT      0.0000
    428 C2        -0.7167     4.4919   104.5176 C.2       42 DT      0.0000
    429 O2        -1.9120     4.6492   104.2794 O.2       42 DT      0.0000
    430 N3        -0.1858     3.2327   104.5986 N.am      42 DT      0.0000
    431 C4         1.1218     3.0014   104.8546 C.2       42 DT      0.0000
    432 O4         1.4630     1.7906   104.8998 O.2       42 DT      0.0000
    433 C5         2.0014     4.1135   105.0543 C.2       42 DT      0.0000
    434 C7         3.4537     3.9012   105.3342 C.3       42 DT      0.0000
    435 C6         1.4735     5.3415   104.9728 C.2       42 DT      0.0000
    436 H5'        1.4204    10.7205   105.0226 H         42 DT      0.0000
    437 H5''       1.4887    10.5083   103.2480 H         42 DT      0.0000
    438 H4'       -0.4558     9.4035   103.5021 H         42 DT      0.0000
    439 H3'        0.0440     9.5947   106.3365 H         42 DT      0.0000
    440 H2'        0.2971     7.2757   106.6204 H         42 DT      0.0000
    441 H2''      -1.4887     7.2972   106.4408 H         42 DT      0.0000
    442 H1'       -1.3633     6.9072   104.0736 H         42 DT      0.0000
    443 H3        -0.7979     2.4412   104.4612 H         42 DT      0.0000
    444 H6         2.1153     6.1987   105.1131 H         42 DT      0.0000
    445 H71        4.0302     4.0902   104.4286 H         42 DT      0.0000
    446 H72        3.6143     2.8732   105.6589 H         42 DT      0.0000
    447 H73        3.7761     4.5849   106.1195 H         42 DT      0.0000
    448 P         -2.3367    10.4118   106.6711 P.3       43 DG      0.0000
    449 OP1       -3.1098    11.5125   105.9561 O.co2     43 DG      0.0000
    450 OP2       -1.1906    10.8880   107.4247 O.co2     43 DG      0.0000
    451 O5'       -3.2783     9.2259   107.2807 O.3       43 DG      0.0000
    452 C5'       -4.0713     8.6217   106.1901 C.3       43 DG      0.0000
    453 C4'       -4.6596     7.3433   106.7101 C.3       43 DG      0.0000
    454 O4'       -3.8938     6.1821   106.5295 O.3       43 DG      0.0000
    455 C3'       -5.0023     7.4197   108.2181 C.3       43 DG      0.0000
    456 O3'       -6.3947     7.0545   108.3770 O.3       43 DG      0.0000
    457 C2'       -3.9878     6.5050   108.8707 C.3       43 DG      0.0000
    458 C1'       -3.7785     5.4516   107.7892 C.3       43 DG      0.0000
    459 N9        -2.4959     4.7596   107.9587 N.ar      43 DG      0.0000
    460 C8        -1.2785     5.2843   108.2949 C.ar      43 DG      0.0000
    461 N7        -0.3066     4.4029   108.3806 N.ar      43 DG      0.0000
    462 C5        -0.9401     3.2070   108.0506 C.ar      43 DG      0.0000
    463 C6        -0.4330     1.8794   107.9563 C.2       43 DG      0.0000
    464 O6         0.7276     1.4872   108.1486 O.2       43 DG      0.0000
    465 N1        -1.3746     0.9334   107.6212 N.am      43 DG      0.0000
    466 C2        -2.6771     1.2610   107.3975 C.2       43 DG      0.0000
    467 N2        -3.4513     0.2124   107.0887 N.pl3     43 DG      0.0000
    468 N3        -3.1975     2.4840   107.4685 N.2       43 DG      0.0000
    469 C4        -2.2794     3.4097   107.7951 C.ar      43 DG      0.0000
    470 H5'       -4.8682     9.3020   105.8896 H         43 DG      0.0000
    471 H5''      -3.4256     8.4107   105.3377 H         43 DG      0.0000
    472 H4'       -5.5991     7.1884   106.1795 H         43 DG      0.0000
    473 H3'       -4.8522     8.4393   108.5729 H         43 DG      0.0000
    474 H2'       -3.0616     7.0345   109.0937 H         43 DG      0.0000
    475 H2''      -4.4004     6.0538   109.7731 H         43 DG      0.0000
    476 H1'       -4.5846     4.7203   107.8481 H         43 DG      0.0000
    477 H8        -1.1275     6.3383   108.4755 H         43 DG      0.0000
    478 H1        -1.0911    -0.0325   107.5389 H         43 DG      0.0000
    479 H21       -3.0509    -0.7135   107.0384 H         43 DG      0.0000
    480 H22       -4.4354     0.3477   106.9060 H         43 DG      0.0000
    481 P         -7.1085     7.1352   109.7654 P.3       44 DA      0.0000
    482 OP1       -7.7474     8.4385   110.1208 O.co2     44 DA      0.0000
    483 OP2       -5.8254     6.9765   110.6612 O.co2     44 DA      0.0000
    484 O5'       -7.9162     5.7934   110.0145 O.3       44 DA      0.0000
    485 C5'       -8.3770     4.9055   108.9855 C.3       44 DA      0.0000
    486 C4'       -7.9989     3.5117   109.4598 C.3       44 DA      0.0000
    487 O4'       -6.6028     3.3235   109.3694 O.3       44 DA      0.0000
    488 C3'       -8.4042     3.1502   110.8889 C.3       44 DA      0.0000
    489 O3'       -9.0293     1.8512   110.9411 O.3       44 DA      0.0000
    490 C2'       -7.0593     3.1978   111.6243 C.3       44 DA      0.0000
    491 C1'       -6.1724     2.5927   110.5467 C.3       44 DA      0.0000
    492 N9        -4.7389     2.8008   110.7751 N.ar      44 DA      0.0000
    493 C8        -4.0428     3.9561   110.9909 C.ar      44 DA      0.0000
    494 N7        -2.7511     3.7769   111.1558 N.ar      44 DA      0.0000
    495 C5        -2.5848     2.4072   111.0156 C.ar      44 DA      0.0000
    496 C6        -1.4307     1.5950   111.0636 C.ar      44 DA      0.0000
    497 N6        -0.1953     2.0510   111.2834 N.pl3     44 DA      0.0000
    498 N1        -1.6498     0.2599   110.8738 N.ar      44 DA      0.0000
    499 C2        -2.8946    -0.2237   110.6561 C.ar      44 DA      0.0000
    500 N3        -4.0249     0.4795   110.5978 N.ar      44 DA      0.0000
    501 C4        -3.7904     1.7911   110.7847 C.ar      44 DA      0.0000
    502 H5'       -7.8876     5.1323   108.0383 H         44 DA      0.0000
    503 H5''      -9.4588     4.9849   108.8777 H         44 DA      0.0000
    504 H4'       -8.4733     2.7944   108.7900 H         44 DA      0.0000
    505 H3'       -9.0780     3.9071   111.2903 H         44 DA      0.0000
    506 H2'       -6.7645     4.2181   111.8698 H         44 DA      0.0000
    507 H2''      -7.0774     2.5701   112.5152 H         44 DA      0.0000
    508 H1'       -6.3871     1.5302   110.4322 H         44 DA      0.0000
    509 H8        -4.5113     4.9287   111.0230 H         44 DA      0.0000
    510 H2        -2.9810    -1.2910   110.5147 H         44 DA      0.0000
    511 H61        0.0920     3.0144   111.1860 H         44 DA      0.0000
    512 H62        0.5824     1.4297   111.1119 H         44 DA      0.0000
    513 P        -10.1428     1.4569   112.0826 P.3       45 DA      0.0000
    514 OP1      -11.4551     1.1277   111.4155 O.co2     45 DA      0.0000
    515 OP2      -10.1436     2.6782   112.9135 O.co2     45 DA      0.0000
    516 O5'       -9.6083     0.0506   112.6134 O.3       45 DA      0.0000
    517 C5'       -9.4790    -1.1065   111.7891 C.3       45 DA      0.0000
    518 C4'       -8.3151    -1.9303   112.3114 C.3       45 DA      0.0000
    519 O4'       -7.1341    -1.1797   112.3396 O.3       45 DA      0.0000
    520 C3'       -8.4704    -2.5733   113.6787 C.3       45 DA      0.0000
    521 O3'       -8.4463    -3.9984   113.6009 O.3       45 DA      0.0000
    522 C2'       -7.3423    -1.9464   114.5074 C.3       45 DA      0.0000
    523 C1'       -6.3304    -1.5261   113.5136 C.3       45 DA      0.0000
    524 N9        -5.4571    -0.3690   113.7817 N.ar      45 DA      0.0000
    525 C8        -5.7678     0.9643   113.8969 C.ar      45 DA      0.0000
    526 N7        -4.7272     1.7452   114.0662 N.ar      45 DA      0.0000
    527 C5        -3.6464     0.8700   114.0292 C.ar      45 DA      0.0000
    528 C6        -2.2445     1.0896   114.1496 C.ar      45 DA      0.0000
    529 N6        -1.6630     2.2671   114.3413 N.pl3     45 DA      0.0000
    530 N1        -1.4583    -0.0310   114.0515 N.ar      45 DA      0.0000
    531 C2        -2.0206    -1.2600   113.8624 C.ar      45 DA      0.0000
    532 N3        -3.3157    -1.5344   113.7545 N.ar      45 DA      0.0000
    533 C4        -4.0751    -0.4243   113.8464 C.ar      45 DA      0.0000
    534 H5'       -9.2862    -0.8065   110.7591 H         45 DA      0.0000
    535 H5''     -10.3954    -1.6948   111.8351 H         45 DA      0.0000
    536 H4'       -8.1570    -2.7398   111.5987 H         45 DA      0.0000
    537 H3'       -9.4261    -2.2640   114.1019 H         45 DA      0.0000
    538 H2'       -7.7100    -1.0868   115.0677 H         45 DA      0.0000
    539 H2''      -6.9186    -2.6858   115.1870 H         45 DA      0.0000
    540 H1'       -5.7056    -2.3847   113.2676 H         45 DA      0.0000
    541 H8        -6.7803     1.3371   113.8520 H         45 DA      0.0000
    542 H2        -1.3416    -2.0970   113.7932 H         45 DA      0.0000
    543 H61       -2.1751     3.0743   114.6675 H         45 DA      0.0000
    544 H62       -0.6747     2.3592   114.1545 H         45 DA      0.0000
    545 P         -9.2851    -5.0115   114.5571 P.3       46 DT      0.0000
    546 OP1       -9.8882    -6.1625   113.7598 O.co2     46 DT      0.0000
    547 OP2      -10.2264    -4.2787   115.3777 O.co2     46 DT      0.0000
    548 O5'       -8.0757    -5.7732   115.3708 O.3       46 DT      0.0000
    549 C5'       -6.9571    -6.0564   114.4257 C.3       46 DT      0.0000
    550 C4'       -5.7127    -5.7343   115.2134 C.3       46 DT      0.0000
    551 O4'       -5.5057    -4.3529   115.4054 O.3       46 DT      0.0000
    552 C3'       -5.7482    -6.3370   116.6300 C.3       46 DT      0.0000
    553 O3'       -5.0203    -7.5511   116.6317 O.3       46 DT      0.0000
    554 C2'       -5.1743    -5.2433   117.5273 C.3       46 DT      0.0000
    555 C1'       -4.5618    -4.3081   116.5627 C.3       46 DT      0.0000
    556 N1        -4.3855    -2.9051   116.9024 N.am      46 DT      0.0000
    557 C2        -3.0774    -2.4515   117.0404 C.2       46 DT      0.0000
    558 O2        -2.1466    -3.2418   116.9523 O.2       46 DT      0.0000
    559 N3        -2.8781    -1.1281   117.2943 N.am      46 DT      0.0000
    560 C4        -3.9059    -0.2371   117.4145 C.2       46 DT      0.0000
    561 O4        -3.6383     0.9804   117.6697 O.2       46 DT      0.0000
    562 C5        -5.2439    -0.7231   117.2429 C.2       46 DT      0.0000
    563 C7        -6.4109     0.2210   117.3304 C.3       46 DT      0.0000
    564 C6        -5.4348    -2.0288   116.9871 C.2       46 DT      0.0000
    565 H5'       -6.9626    -7.1039   114.1241 H         46 DT      0.0000
    566 H5''      -7.0286    -5.4104   113.5507 H         46 DT      0.0000
    567 H4'       -4.8520    -6.1434   114.6843 H         46 DT      0.0000
    568 H3'       -6.7819    -6.5337   116.9144 H         46 DT      0.0000
    569 H2'       -5.9617    -4.7541   118.1007 H         46 DT      0.0000
    570 H2''      -4.4163    -5.6549   118.1937 H         46 DT      0.0000
    571 H1'       -3.6012    -4.7136   116.2453 H         46 DT      0.0000
    572 H3        -1.9313    -0.7921   117.3981 H         46 DT      0.0000
    573 H6        -6.4405    -2.3961   116.8450 H         46 DT      0.0000
    574 H71       -6.0498     1.2271   117.5435 H         46 DT      0.0000
    575 H72       -6.9492     0.2215   116.3826 H         46 DT      0.0000
    576 H73       -7.0800    -0.1015   118.1282 H         46 DT      0.0000
    577 P         -4.9311    -8.6360   117.7383 P.3       47 DT      0.0000
    578 OP1       -4.5163    -9.9990   117.1262 O.co2     47 DT      0.0000
    579 OP2       -6.2750    -8.7003   118.3683 O.co2     47 DT      0.0000
    580 O5'       -3.6627    -8.2062   118.6206 O.3       47 DT      0.0000
    581 C5'       -2.4083    -8.3811   117.9089 C.3       47 DT      0.0000
    582 C4'       -1.3585    -7.5695   118.5850 C.3       47 DT      0.0000
    583 O4'       -1.6105    -6.1700   118.5617 O.3       47 DT      0.0000
    584 C3'       -1.1094    -7.9497   120.0517 C.3       47 DT      0.0000
    585 O3'        0.2800    -7.9946   120.3157 O.3       47 DT      0.0000
    586 C2'       -1.7437    -6.7458   120.7880 C.3       47 DT      0.0000
    587 C1'       -1.2061    -5.6548   119.8844 C.3       47 DT      0.0000
    588 N1        -1.8263    -4.3770   120.1821 N.am      47 DT      0.0000
    589 C2        -1.0233    -3.2494   120.2369 C.2       47 DT      0.0000
    590 O2         0.1881    -3.3705   120.0485 O.2       47 DT      0.0000
    591 N3        -1.6151    -2.0468   120.5029 N.am      47 DT      0.0000
    592 C4        -2.9551    -1.9276   120.7099 C.2       47 DT      0.0000
    593 O4        -3.4344    -0.7792   120.9332 O.2       47 DT      0.0000
    594 C5        -3.7722    -3.0937   120.6448 C.2       47 DT      0.0000
    595 C7        -5.2575    -3.0431   120.8547 C.3       47 DT      0.0000
    596 C6        -3.1744    -4.2667   120.3837 C.2       47 DT      0.0000
    597 H5'       -2.1232    -9.4330   117.9213 H         47 DT      0.0000
    598 H5''      -2.5228    -8.0454   116.8782 H         47 DT      0.0000
    599 H4'       -0.4258    -7.7373   118.0465 H         47 DT      0.0000
    600 H3'       -1.6002    -8.8870   120.3141 H         47 DT      0.0000
    601 H2'       -2.8329    -6.7859   120.7867 H         47 DT      0.0000
    602 H2''      -1.3521    -6.6500   121.8007 H         47 DT      0.0000
    603 H1'       -0.1208    -5.5871   119.9601 H         47 DT      0.0000
    604 H3        -1.0388    -1.2185   120.5473 H         47 DT      0.0000
    605 H6        -3.7817    -5.1582   120.3306 H         47 DT      0.0000
    606 H71       -5.5621    -2.0156   121.0536 H         47 DT      0.0000
    607 H72       -5.7632    -3.4049   119.9594 H         47 DT      0.0000
    608 H73       -5.5262    -3.6725   121.7031 H         47 DT      0.0000
    609 P          1.2864    -9.0341   120.9237 P.3       48 DC      0.0000
    610 OP1        2.1908    -9.6187   119.8557 O.co2     48 DC      0.0000
    611 OP2        0.4513   -10.0015   121.6586 O.co2     48 DC      0.0000
    612 O5'        2.1865    -7.9535   121.7497 O.3       48 DC      0.0000
    613 C5'        2.5499    -6.9544   120.7274 C.3       48 DC      0.0000
    614 C4'        3.3275    -5.8742   121.4239 C.3       48 DC      0.0000
    615 O4'        2.5620    -4.7357   121.6708 O.3       48 DC      0.0000
    616 C3'        4.0154    -6.3021   122.7154 C.3       48 DC      0.0000
    617 O3'        5.4126    -6.0527   122.6357 O.3       48 DC      0.0000
    618 C2'        3.2023    -5.5402   123.7641 C.3       48 DC      0.0000
    619 C1'        2.7359    -4.3236   123.0677 C.3       48 DC      0.0000
    620 N1         1.3930    -3.8374   123.3998 N.am      48 DC      0.0000
    621 C2         1.2862    -2.4721   123.6556 C.2       48 DC      0.0000
    622 O2         2.2801    -1.7394   123.6601 O.2       48 DC      0.0000
    623 N3         0.0356    -1.9758   123.9295 N.2       48 DC      0.0000
    624 C4        -1.0670    -2.7785   123.9196 C.2       48 DC      0.0000
    625 N4        -2.2327    -2.2046   124.1964 N.pl3     48 DC      0.0000
    626 C5        -0.9457    -4.1578   123.6415 C.2       48 DC      0.0000
    627 C6         0.2896    -4.6304   123.3767 C.2       48 DC      0.0000
    628 H5'        3.1629    -7.4168   119.9538 H         48 DC      0.0000
    629 H5''       1.6478    -6.5338   120.2832 H         48 DC      0.0000
    630 H4'        4.1188    -5.5718   120.7380 H         48 DC      0.0000
    631 H3'        3.8580    -7.3711   122.8587 H         48 DC      0.0000
    632 H2'        2.3556    -6.1378   124.1020 H         48 DC      0.0000
    633 H2''       3.8354    -5.2713   124.6097 H         48 DC      0.0000
    634 H1'        3.4708    -3.5228   123.1487 H         48 DC      0.0000
    635 H5        -1.8077    -4.8084   123.6409 H         48 DC      0.0000
    636 H6         0.4061    -5.6771   123.1377 H         48 DC      0.0000
    637 H41       -2.2739    -1.2153   124.3956 H         48 DC      0.0000
    638 H42       -3.0778    -2.7577   124.2077 H         48 DC      0.0000
    639 P          6.5595    -6.6943   123.5877 P.3       49 DA      0.0000
    640 OP1        7.8518    -6.6833   122.7940 O.co2     49 DA      0.0000
    641 OP2        6.1427    -8.0686   123.9333 O.co2     49 DA      0.0000
    642 O5'        6.6101    -5.6827   124.8847 O.3       49 DA      0.0000
    643 C5'        6.7790    -4.2624   124.5895 C.3       49 DA      0.0000
    644 C4'        6.7071    -3.4563   125.8448 C.3       49 DA      0.0000
    645 O4'        5.4481    -2.8210   126.0869 O.3       49 DA      0.0000
    646 C3'        6.9324    -4.2376   127.1500 C.3       49 DA      0.0000
    647 O3'        7.2857    -3.3116   128.1800 O.3       49 DA      0.0000
    648 C2'        5.5057    -4.7813   127.3646 C.3       49 DA      0.0000
    649 C1'        4.7800    -3.4441   127.1814 C.3       49 DA      0.0000
    650 N9         3.3501    -3.6847   127.0870 N.ar      49 DA      0.0000
    651 C8         2.6493    -4.8531   126.9712 C.ar      49 DA      0.0000
    652 N7         1.3355    -4.7162   126.9526 N.ar      49 DA      0.0000
    653 C5         1.1591    -3.3440   127.0601 C.ar      49 DA      0.0000
    654 C6        -0.0045    -2.5365   127.0947 C.ar      49 DA      0.0000
    655 N6        -1.2392    -2.9979   127.0094 N.pl3     49 DA      0.0000
    656 N1         0.1998    -1.1929   127.2272 N.ar      49 DA      0.0000
    657 C2         1.4634    -0.6710   127.3074 C.ar      49 DA      0.0000
    658 N3         2.6005    -1.3620   127.2776 N.ar      49 DA      0.0000
    659 C4         2.3788    -2.6937   127.1546 C.ar      49 DA      0.0000
    660 H5'        7.7495    -4.1068   124.1184 H         49 DA      0.0000
    661 H5''       5.9917    -3.9396   123.9082 H         49 DA      0.0000
    662 H4'        7.4679    -2.6780   125.7859 H         49 DA      0.0000
    663 H3'        7.6681    -5.0338   127.0364 H         49 DA      0.0000
    664 H2'        5.2212    -5.5185   126.6139 H         49 DA      0.0000
    665 H2''       5.3752    -5.1703   128.3745 H         49 DA      0.0000
    666 H1'        4.9601    -2.8407   128.0710 H         49 DA      0.0000
    667 H8         3.1335    -5.8158   126.9002 H         49 DA      0.0000
    668 H2         1.5448     0.4016   127.4039 H         49 DA      0.0000
    669 H61       -2.1516    -2.6037   127.1895 H         49 DA      0.0000
    670 H62       -1.2800    -3.9567   126.6947 H         49 DA      0.0000
    671 P          8.7773    -2.7496   128.3204 P.3       50 DC      0.0000
    672 OP1        9.5821    -2.9017   127.0753 O.co2     50 DC      0.0000
    673 OP2        9.3157    -3.5609   129.4633 O.co2     50 DC      0.0000
    674 O5'        8.5595    -1.2046   128.6036 O.3       50 DC      0.0000
    675 C5'        8.3132    -0.2628   127.5159 C.3       50 DC      0.0000
    676 C4'        7.4721     0.8074   128.2208 C.3       50 DC      0.0000
    677 O4'        6.2276     0.2257   128.5328 O.3       50 DC      0.0000
    678 C3'        8.0790     1.3033   129.5307 C.3       50 DC      0.0000
    679 O3'        8.1705     2.7444   129.5986 O.3       50 DC      0.0000
    680 C2'        7.1705     0.7007   130.6129 C.3       50 DC      0.0000
    681 C1'        5.8608     0.6457   129.9368 C.3       50 DC      0.0000
    682 N1         4.8620    -0.3599   130.2896 N.am      50 DC      0.0000
    683 C2         3.5409     0.0829   130.2627 C.2       50 DC      0.0000
    684 O2         3.2390     1.2515   130.0558 O.2       50 DC      0.0000
    685 N3         2.5692    -0.8345   130.5158 N.2       50 DC      0.0000
    686 C4         2.8444    -2.1406   130.7492 C.2       50 DC      0.0000
    687 N4         1.8073    -2.9433   130.9801 N.pl3     50 DC      0.0000
    688 C5         4.1959    -2.5829   130.7557 C.2       50 DC      0.0000
    689 C6         5.1494    -1.6721   130.5063 C.2       50 DC      0.0000
    690 H5'        9.2444     0.1528   127.1310 H         50 DC      0.0000
    691 H5''       7.7431    -0.7369   126.7169 H         50 DC      0.0000
    692 H4'        7.3203     1.6515   127.5482 H         50 DC      0.0000
    693 H3'        9.0788     0.8822   129.6366 H         50 DC      0.0000
    694 H2'        7.5074    -0.2955   130.8999 H         50 DC      0.0000
    695 H2''       7.1251     1.3553   131.4832 H         50 DC      0.0000
    696 H1'        5.4055     1.6360   129.9235 H         50 DC      0.0000
    697 H5         4.4459    -3.6147   130.9542 H         50 DC      0.0000
    698 H6         6.1805    -1.9916   130.4766 H         50 DC      0.0000
    699 H41        0.8684    -2.5712   130.9691 H         50 DC      0.0000
    700 H42        1.9596    -3.9243   131.1663 H         50 DC      0.0000
    701 P         -8.3745    -1.3833   132.5581 P.3       50 DG      0.0000
    702 OP1       -9.8272    -1.6911   132.7369 O.co2     50 DG      0.0000
    703 OP2       -7.7156    -2.2250   131.4733 O.co2     50 DG      0.0000
    704 O5'       -8.1818     0.2382   132.3509 O.3       50 DG      0.0000
    705 C5'       -7.6238     1.0369   133.4467 C.3       50 DG      0.0000
    706 C4'       -6.7181     2.0899   132.8124 C.3       50 DG      0.0000
    707 O4'       -5.3903     1.6517   132.7166 O.3       50 DG      0.0000
    708 C3'       -7.1322     2.5149   131.4061 C.3       50 DG      0.0000
    709 O3'       -6.9768     3.9279   131.1391 O.3       50 DG      0.0000
    710 C2'       -6.2180     1.6666   130.5038 C.3       50 DG      0.0000
    711 C1'       -4.9412     1.6507   131.3276 C.3       50 DG      0.0000
    712 N9        -4.1488     0.4396   131.0543 N.ar      50 DG      0.0000
    713 C8        -4.6013    -0.8490   130.8976 C.ar      50 DG      0.0000
    714 N7        -3.6538    -1.7217   130.6792 N.ar      50 DG      0.0000
    715 C5        -2.4919    -0.9593   130.7040 C.ar      50 DG      0.0000
    716 C6        -1.1279    -1.3236   130.5476 C.2       50 DG      0.0000
    717 O6        -0.6843    -2.4639   130.3507 O.2       50 DG      0.0000
    718 N1        -0.2487    -0.2725   130.6345 N.am      50 DG      0.0000
    719 C2        -0.6519     1.0028   130.8552 C.2       50 DG      0.0000
    720 N2         0.3133     1.9160   130.9185 N.pl3     50 DG      0.0000
    721 N3        -1.9209     1.3987   131.0129 N.2       50 DG      0.0000
    722 C4        -2.7830     0.3669   130.9296 C.ar      50 DG      0.0000
    723 H5'       -8.4262     1.5197   134.0045 H         50 DG      0.0000
    724 H5''      -7.0417     0.3989   134.1116 H         50 DG      0.0000
    725 H4'       -6.7347     2.9745   133.4491 H         50 DG      0.0000
    726 H3'       -8.1703     2.2293   131.2356 H         50 DG      0.0000
    727 H2'       -6.6159     0.6619   130.3611 H         50 DG      0.0000
    728 H2''      -6.0548     2.1587   129.5450 H         50 DG      0.0000
    729 H1'       -4.3491     2.5426   131.1224 H         50 DG      0.0000
    730 H8        -5.6464    -1.1160   130.9504 H         50 DG      0.0000
    731 H1         0.7387    -0.4570   130.5297 H         50 DG      0.0000
    732 H21        1.2780     1.6400   130.8034 H         50 DG      0.0000
    733 H22        0.0814     2.8854   131.0817 H         50 DG      0.0000
    734 P         -6.6660     4.3158   129.6156 P.3       49 DT      0.0000
    735 OP1       -7.1599     5.6826   129.2247 O.co2     49 DT      0.0000
    736 OP2       -7.4239     3.2499   128.9151 O.co2     49 DT      0.0000
    737 O5'       -5.0705     4.2494   129.4847 O.3       49 DT      0.0000
    738 C5'       -4.3351     5.4861   129.7523 C.3       49 DT      0.0000
    739 C4'       -3.0258     5.4373   128.9953 C.3       49 DT      0.0000
    740 O4'       -2.4518     4.1426   128.9680 O.3       49 DT      0.0000
    741 C3'       -3.1621     5.8596   127.5406 C.3       49 DT      0.0000
    742 O3'       -2.0473     6.6326   127.0455 O.3       49 DT      0.0000
    743 C2'       -3.2964     4.5376   126.8177 C.3       49 DT      0.0000
    744 C1'       -2.2748     3.7250   127.5958 C.3       49 DT      0.0000
    745 N1        -2.6538     2.3113   127.4445 N.am      49 DT      0.0000
    746 C2        -1.6226     1.3837   127.5513 C.2       49 DT      0.0000
    747 O2        -0.4693     1.7554   127.7410 O.2       49 DT      0.0000
    748 N3        -1.9557     0.0635   127.4311 N.am      49 DT      0.0000
    749 C4        -3.2393    -0.3392   127.2135 C.2       49 DT      0.0000
    750 O4        -3.4527    -1.5929   127.1160 O.2       49 DT      0.0000
    751 C5        -4.2737     0.6339   127.1072 C.2       49 DT      0.0000
    752 C7        -5.6934     0.2009   126.8782 C.3       49 DT      0.0000
    753 C6        -3.9425     1.9219   127.2289 C.2       49 DT      0.0000
    754 H5'       -4.9213     6.3423   129.4186 H         49 DT      0.0000
    755 H5''      -4.1377     5.5712   130.8209 H         49 DT      0.0000
    756 H4'       -2.3231     6.1128   129.4832 H         49 DT      0.0000
    757 H3'       -4.0810     6.4326   127.4166 H         49 DT      0.0000
    758 H2'       -4.3006     4.1239   126.9093 H         49 DT      0.0000
    759 H2''      -3.0060     4.6325   125.7713 H         49 DT      0.0000
    760 H1'       -1.2595     3.9105   127.2452 H         49 DT      0.0000
    761 H3        -1.2292    -0.6341   127.5058 H         49 DT      0.0000
    762 H6        -4.7145     2.6735   127.1548 H         49 DT      0.0000
    763 H71       -5.7357    -0.8860   126.8095 H         49 DT      0.0000
    764 H72       -6.3139     0.5367   127.7091 H         49 DT      0.0000
    765 H73       -6.0615     0.6383   125.9501 H         49 DT      0.0000
    766 P         -2.6779     7.9559   126.2671 P.3       48 DG      0.0000
    767 OP1       -2.7780     9.1655   127.1383 O.co2     48 DG      0.0000
    768 OP2       -3.9805     7.3712   125.8615 O.co2     48 DG      0.0000
    769 O5'       -1.5329     8.2305   125.1863 O.3       48 DG      0.0000
    770 C5'       -0.3171     8.8980   125.6097 C.3       48 DG      0.0000
    771 C4'        0.8097     7.9755   125.1620 C.3       48 DG      0.0000
    772 O4'        0.4603     6.6328   125.4327 O.3       48 DG      0.0000
    773 C3'        1.1483     8.0700   123.6743 C.3       48 DG      0.0000
    774 O3'        2.5151     8.3778   123.4658 O.3       48 DG      0.0000
    775 C2'        0.6809     6.7455   123.0976 C.3       48 DG      0.0000
    776 C1'        0.7713     5.8147   124.2837 C.3       48 DG      0.0000
    777 N9        -0.1885     4.7143   124.1601 N.ar      48 DG      0.0000
    778 C8        -1.5436     4.7847   124.0013 C.ar      48 DG      0.0000
    779 N7        -2.1272     3.6137   123.9232 N.ar      48 DG      0.0000
    780 C5        -1.0819     2.7051   124.0607 C.ar      48 DG      0.0000
    781 C6        -1.0560     1.2855   124.0702 C.2       48 DG      0.0000
    782 O6        -2.0148     0.5265   123.9711 O.2       48 DG      0.0000
    783 N1         0.1878     0.7407   124.2192 N.am      48 DG      0.0000
    784 C2         1.3137     1.5168   124.3520 C.2       48 DG      0.0000
    785 N2         2.4638     0.8560   124.4877 N.pl3     48 DG      0.0000
    786 N3         1.3589     2.8529   124.3563 N.2       48 DG      0.0000
    787 C4         0.1192     3.3785   124.2056 C.ar      48 DG      0.0000
    788 H5'       -0.2279     9.8731   125.1310 H         48 DG      0.0000
    789 H5''      -0.3057     9.0080   126.6941 H         48 DG      0.0000
    790 H4'        1.7038     8.2208   125.7350 H         48 DG      0.0000
    791 H3'        0.5469     8.8662   123.2357 H         48 DG      0.0000
    792 H2'       -0.3432     6.8163   122.7312 H         48 DG      0.0000
    793 H2''       1.3499     6.4173   122.3020 H         48 DG      0.0000
    794 H1'        1.7832     5.4188   124.3707 H         48 DG      0.0000
    795 H8        -2.0837     5.7183   123.9452 H         48 DG      0.0000
    796 H1         0.2827    -0.2647   124.2320 H         48 DG      0.0000
    797 H21        2.4689    -0.1540   124.4887 H         48 DG      0.0000
    798 H22        3.3299     1.3654   124.5895 H         48 DG      0.0000
    799 P          3.6820     7.7574   122.5995 P.3       47 DA      0.0000
    800 OP1        5.0013     7.8028   123.3808 O.co2     47 DA      0.0000
    801 OP2        3.7645     8.6035   121.4068 O.co2     47 DA      0.0000
    802 O5'        3.3280     6.1768   122.4247 O.3       47 DA      0.0000
    803 C5'        3.7928     5.3844   123.5811 C.3       47 DA      0.0000
    804 C4'        4.8215     4.4151   123.0533 C.3       47 DA      0.0000
    805 O4'        4.2888     3.1341   122.8310 O.3       47 DA      0.0000
    806 C3'        5.4145     4.8472   121.7128 C.3       47 DA      0.0000
    807 O3'        6.8019     4.6216   121.6376 O.3       47 DA      0.0000
    808 C2'        4.5267     4.1238   120.7162 C.3       47 DA      0.0000
    809 C1'        3.9519     2.9383   121.4401 C.3       47 DA      0.0000
    810 N9         2.5017     2.8141   121.2146 N.ar      47 DA      0.0000
    811 C8         1.5659     3.8085   121.0282 C.ar      47 DA      0.0000
    812 N7         0.3431     3.3715   120.8323 N.ar      47 DA      0.0000
    813 C5         0.4808     1.9918   120.9192 C.ar      47 DA      0.0000
    814 C6        -0.4681     0.9483   120.8135 C.ar      47 DA      0.0000
    815 N6        -1.7573     1.1453   120.6011 N.pl3     47 DA      0.0000
    816 N1         0.0179    -0.3177   120.9373 N.ar      47 DA      0.0000
    817 C2         1.3448    -0.5510   121.1618 C.ar      47 DA      0.0000
    818 N3         2.2862     0.3833   121.2777 N.ar      47 DA      0.0000
    819 C4         1.7911     1.6373   121.1415 C.ar      47 DA      0.0000
    820 H5'        4.2411     6.0382   124.3292 H         47 DA      0.0000
    821 H5''       2.9568     4.8381   124.0178 H         47 DA      0.0000
    822 H4'        5.6290     4.3346   123.7810 H         47 DA      0.0000
    823 H3'        5.2424     5.9176   121.5997 H         47 DA      0.0000
    824 H2'        5.1137     3.7935   119.8594 H         47 DA      0.0000
    825 H2''       3.7241     4.7831   120.3857 H         47 DA      0.0000
    826 H1'        4.4435     2.0338   121.0819 H         47 DA      0.0000
    827 H8         1.8170     4.8588   121.0421 H         47 DA      0.0000
    828 H2         1.6568    -1.5809   121.2530 H         47 DA      0.0000
    829 H61       -2.4468     0.4780   120.9165 H         47 DA      0.0000
    830 H62       -2.0586     1.9777   120.1148 H         47 DA      0.0000
    831 P          7.7164     4.1145   120.4530 P.3       46 DA      0.0000
    832 OP1        9.1447     3.7788   120.9729 O.co2     46 DA      0.0000
    833 OP2        7.8006     5.2806   119.5193 O.co2     46 DA      0.0000
    834 O5'        7.1197     2.7459   119.9503 O.3       46 DA      0.0000
    835 C5'        7.6884     1.5010   120.4062 C.3       46 DA      0.0000
    836 C4'        6.9388     0.3896   119.7042 C.3       46 DA      0.0000
    837 O4'        5.5625     0.6106   119.5835 O.3       46 DA      0.0000
    838 C3'        7.4578     0.0990   118.2967 C.3       46 DA      0.0000
    839 O3'        8.0479    -1.2142   118.2653 O.3       46 DA      0.0000
    840 C2'        6.2519     0.3762   117.3972 C.3       46 DA      0.0000
    841 C1'        5.0839     0.1011   118.2949 C.3       46 DA      0.0000
    842 N9         3.8493     0.8189   117.9953 N.ar      46 DA      0.0000
    843 C8         3.6501     2.1700   117.8006 C.ar      46 DA      0.0000
    844 N7         2.3937     2.4966   117.5952 N.ar      46 DA      0.0000
    845 C5         1.7158     1.2954   117.6697 C.ar      46 DA      0.0000
    846 C6         0.3461     0.9752   117.5362 C.ar      46 DA      0.0000
    847 N6        -0.6039     1.8730   117.2930 N.pl3     46 DA      0.0000
    848 N1         0.0397    -0.3536   117.6851 N.ar      46 DA      0.0000
    849 C2         0.9797    -1.2847   117.9376 C.ar      46 DA      0.0000
    850 N3         2.2892    -1.0566   118.0764 N.ar      46 DA      0.0000
    851 C4         2.5880     0.2534   117.9292 C.ar      46 DA      0.0000
    852 H5'        8.7472     1.4575   120.1510 H         46 DA      0.0000
    853 H5''       7.5629     1.4090   121.4850 H         46 DA      0.0000
    854 H4'        7.0727    -0.5169   120.2944 H         46 DA      0.0000
    855 H3'        8.2336     0.8276   118.0617 H         46 DA      0.0000
    856 H2'        6.2479     1.4119   117.0573 H         46 DA      0.0000
    857 H2''       6.2470    -0.3045   116.5458 H         46 DA      0.0000
    858 H1'        4.8953    -0.9708   118.3560 H         46 DA      0.0000
    859 H8         4.4525     2.8928   117.8156 H         46 DA      0.0000
    860 H2         0.6453    -2.3069   118.0366 H         46 DA      0.0000
    861 H61       -1.5332     1.6083   117.5870 H         46 DA      0.0000
    862 H62       -0.4100     2.7575   116.8457 H         46 DA      0.0000
    863 P          8.6599    -1.7614   116.8803 P.3       45 DT      0.0000
    864 OP1        9.5389    -2.9726   116.9384 O.co2     45 DT      0.0000
    865 OP2        9.3141    -0.5188   116.3677 O.co2     45 DT      0.0000
    866 O5'        7.2315    -2.2543   116.1772 O.3       45 DT      0.0000
    867 C5'        6.4086    -2.9092   117.1895 C.3       45 DT      0.0000
    868 C4'        5.4256    -3.8053   116.5065 C.3       45 DT      0.0000
    869 O4'        4.1699    -3.2219   116.3261 O.3       45 DT      0.0000
    870 C3'        5.8820    -4.3071   115.1453 C.3       45 DT      0.0000
    871 O3'        5.4795    -5.6560   114.8780 O.3       45 DT      0.0000
    872 C2'        5.2313    -3.2429   114.2519 C.3       45 DT      0.0000
    873 C1'        3.8672    -3.0979   114.8920 C.3       45 DT      0.0000
    874 N1         3.3086    -1.7523   114.6620 N.am      45 DT      0.0000
    875 C2         1.9345    -1.6429   114.5404 C.2       45 DT      0.0000
    876 O2         1.2105    -2.6391   114.5771 O.2       45 DT      0.0000
    877 N3         1.4021    -0.3934   114.3730 N.am      45 DT      0.0000
    878 C4         2.1818     0.7200   114.3244 C.2       45 DT      0.0000
    879 O4         1.6059     1.8334   114.1389 O.2       45 DT      0.0000
    880 C5         3.5909     0.5877   114.4728 C.2       45 DT      0.0000
    881 C7         4.4878     1.8016   114.4207 C.3       45 DT      0.0000
    882 C6         4.0947    -0.6388   114.6458 C.2       45 DT      0.0000
    883 H5'        7.0429    -3.4986   117.8516 H         45 DT      0.0000
    884 H5''       5.8750    -2.1562   117.7695 H         45 DT      0.0000
    885 H4'        5.2877    -4.6790   117.1436 H         45 DT      0.0000
    886 H3'        6.9668    -4.2295   115.0733 H         45 DT      0.0000
    887 H2'        5.7861    -2.3052   114.2825 H         45 DT      0.0000
    888 H2''       5.1399    -3.6033   113.2273 H         45 DT      0.0000
    889 H1'        3.1831    -3.8781   114.5580 H         45 DT      0.0000
    890 H3         0.4010    -0.2951   114.2828 H         45 DT      0.0000
    891 H6         5.1608    -0.7510   114.7772 H         45 DT      0.0000
    892 H71        4.8951     1.9101   113.4155 H         45 DT      0.0000
    893 H72        5.3046     1.6803   115.1323 H         45 DT      0.0000
    894 H73        3.9115     2.6905   114.6773 H         45 DT      0.0000
    895 P          5.8465    -6.2216   113.3881 P.3       44 DT      0.0000
    896 OP1        6.8757    -7.3437   113.5361 O.co2     44 DT      0.0000
    897 OP2        6.4826    -5.0374   112.7183 O.co2     44 DT      0.0000
    898 O5'        4.5299    -6.7155   112.7360 O.3       44 DT      0.0000
    899 C5'        3.4323    -7.2339   113.4874 C.3       44 DT      0.0000
    900 C4'        2.1717    -6.9396   112.7394 C.3       44 DT      0.0000
    901 O4'        1.7226    -5.6126   112.6824 O.3       44 DT      0.0000
    902 C3'        2.0853    -7.4164   111.2734 C.3       44 DT      0.0000
    903 O3'        0.7002    -7.7599   111.1696 O.3       44 DT      0.0000
    904 C2'        2.4183    -6.1279   110.5096 C.3       44 DT      0.0000
    905 C1'        1.4974    -5.2084   111.2854 C.3       44 DT      0.0000
    906 N1         1.7866    -3.7754   111.1792 N.am      44 DT      0.0000
    907 C2         0.6653    -2.9348   111.1786 C.2       44 DT      0.0000
    908 O2        -0.4766    -3.3973   111.2216 O.2       44 DT      0.0000
    909 N3         0.8972    -1.5904   111.1251 N.am      44 DT      0.0000
    910 C4         2.1514    -1.0597   111.0654 C.2       44 DT      0.0000
    911 O4         2.2618     0.2018   111.0030 O.2       44 DT      0.0000
    912 C5         3.2713    -1.9353   111.0736 C.2       44 DT      0.0000
    913 C7         4.6705    -1.3592   111.0122 C.3       44 DT      0.0000
    914 C6         3.0398    -3.2496   111.1401 C.2       44 DT      0.0000
    915 H5'        3.5453    -8.3111   113.6096 H         44 DT      0.0000
    916 H5''       3.3987    -6.7551   114.4660 H         44 DT      0.0000
    917 H4'        1.3896    -7.4859   113.2667 H         44 DT      0.0000
    918 H3'        2.7571    -8.2438   111.0447 H         44 DT      0.0000
    919 H2'        2.1533    -6.1890   109.4541 H         44 DT      0.0000
    920 H2''       3.4631    -5.8469   110.6412 H         44 DT      0.0000
    921 H1'        0.4612    -5.3994   111.0063 H         44 DT      0.0000
    922 H3         0.1060    -0.9627   111.1300 H         44 DT      0.0000
    923 H6         3.8840    -3.9228   111.1638 H         44 DT      0.0000
    924 H71        4.6145    -0.2718   110.9634 H         44 DT      0.0000
    925 H72        5.1800    -1.7367   110.1256 H         44 DT      0.0000
    926 H73        5.2245    -1.6548   111.9031 H         44 DT      0.0000
    927 P          0.0222    -8.5580   110.0234 P.3       43 DC      0.0000
    928 OP1       -0.8482    -9.6587   110.6325 O.co2     43 DC      0.0000
    929 OP2        1.1390    -9.1752   109.2415 O.co2     43 DC      0.0000
    930 O5'       -0.8301    -7.3828   109.2840 O.3       43 DC      0.0000
    931 C5'       -2.0229    -6.9359   110.0085 C.3       43 DC      0.0000
    932 C4'       -3.0419    -6.5782   108.9580 C.3       43 DC      0.0000
    933 O4'       -3.0913    -5.1920   108.7127 O.3       43 DC      0.0000
    934 C3'       -2.8309    -7.2366   107.5935 C.3       43 DC      0.0000
    935 O3'       -4.0346    -7.5377   106.8843 O.3       43 DC      0.0000
    936 C2'       -1.9411    -6.1908   106.9074 C.3       43 DC      0.0000
    937 C1'       -2.4963    -4.8770   107.4540 C.3       43 DC      0.0000
    938 N1        -1.3711    -3.9199   107.5718 N.am      43 DC      0.0000
    939 C2        -1.6924    -2.5634   107.5891 C.2       43 DC      0.0000
    940 O2        -2.8692    -2.1830   107.5204 O.2       43 DC      0.0000
    941 N3        -0.6558    -1.6755   107.6923 N.2       43 DC      0.0000
    942 C4         0.6389    -2.0817   107.7630 C.2       43 DC      0.0000
    943 N4         1.6152    -1.1771   107.8650 N.pl3     43 DC      0.0000
    944 C5         0.9392    -3.4722   107.7379 C.2       43 DC      0.0000
    945 C6        -0.0797    -4.3437   107.6443 C.2       43 DC      0.0000
    946 H5'       -2.4008    -7.7365   110.6445 H         43 DC      0.0000
    947 H5''      -1.7863    -6.0599   110.6124 H         43 DC      0.0000
    948 H4'       -4.0206    -6.8851   109.3267 H         43 DC      0.0000
    949 H3'       -2.2594    -8.1549   107.7277 H         43 DC      0.0000
    950 H2'       -2.0402    -6.2397   105.8230 H         43 DC      0.0000
    951 H2''      -0.9000    -6.3197   107.2034 H         43 DC      0.0000
    952 H1'       -3.2512    -4.4813   106.7746 H         43 DC      0.0000
    953 H5         1.9606    -3.8188   107.7927 H         43 DC      0.0000
    954 H6         0.1308    -5.4029   107.6262 H         43 DC      0.0000
    955 H41        1.3912    -0.1925   107.8857 H         43 DC      0.0000
    956 H42        2.5779    -1.4773   107.9214 H         43 DC      0.0000
    957 P         -4.2448    -7.4352   105.2523 P.3       42 DA      0.0000
    958 OP1       -5.3896    -8.3453   104.8628 O.co2     42 DA      0.0000
    959 OP2       -2.9235    -7.8145   104.6822 O.co2     42 DA      0.0000
    960 O5'       -4.7323    -5.9241   105.0867 O.3       42 DA      0.0000
    961 C5'       -6.0955    -5.5820   105.5522 C.3       42 DA      0.0000
    962 C4'       -6.4320    -4.3883   104.6749 C.3       42 DA      0.0000
    963 O4'       -5.5172    -3.3178   104.9422 O.3       42 DA      0.0000
    964 C3'       -6.2704    -4.6701   103.1705 C.3       42 DA      0.0000
    965 O3'       -6.9353    -3.6965   102.3814 O.3       42 DA      0.0000
    966 C2'       -4.7684    -4.3875   102.9830 C.3       42 DA      0.0000
    967 C1'       -4.7943    -3.0302   103.7377 C.3       42 DA      0.0000
    968 N9        -3.3885    -2.6665   103.8831 N.ar      42 DA      0.0000
    969 C8        -2.3218    -3.5342   103.9559 C.ar      42 DA      0.0000
    970 N7        -1.1664    -2.9287   104.0706 N.ar      42 DA      0.0000
    971 C5        -1.5074    -1.5643   104.0642 C.ar      42 DA      0.0000
    972 C6        -0.6964    -0.4005   104.1641 C.ar      42 DA      0.0000
    973 N6         0.6338    -0.4300   104.2870 N.pl3     42 DA      0.0000
    974 N1        -1.3883     0.7725   104.1290 N.ar      42 DA      0.0000
    975 C2        -2.7383     0.8029   104.0101 C.ar      42 DA      0.0000
    976 N3        -3.5590    -0.2475   103.9186 N.ar      42 DA      0.0000
    977 C4        -2.8652    -1.3988   103.9462 C.ar      42 DA      0.0000
    978 H5'       -6.7900    -6.4054   105.3854 H         42 DA      0.0000
    979 H5''      -6.0828    -5.2958   106.6038 H         42 DA      0.0000
    980 H4'       -7.4510    -4.0592   104.8788 H         42 DA      0.0000
    981 H3'       -6.5444    -5.6900   102.9008 H         42 DA      0.0000
    982 H2'       -4.1323    -5.1301   103.4646 H         42 DA      0.0000
    983 H2''      -4.5113    -4.2586   101.9316 H         42 DA      0.0000
    984 H1'       -5.3213    -2.2792   103.1493 H         42 DA      0.0000
    985 H8        -2.4277    -4.6084   103.9219 H         42 DA      0.0000
    986 H2        -3.1992     1.7793   103.9869 H         42 DA      0.0000
    987 H61        1.1192    -1.3153   104.3117 H         42 DA      0.0000
    988 H62        1.1539     0.4331   104.3551 H         42 DA      0.0000
    989 P         -7.9505    -4.1315   101.2405 P.3       41 DC      0.0000
    990 OP1       -9.2363    -4.3492   102.0208 O.co2     41 DC      0.0000
    991 OP2       -7.5080    -5.3274   100.5149 O.co2     41 DC      0.0000
    992 O5'       -7.8940    -2.8090   100.2646 O.3       41 DC      0.0000
    993 C5'       -8.1277    -1.5111   100.9337 C.3       41 DC      0.0000
    994 C4'       -7.2441    -0.4756   100.2896 C.3       41 DC      0.0000
    995 O4'       -5.9817    -0.3226   100.9268 O.3       41 DC      0.0000
    996 C3'       -6.9445    -0.7799    98.8118 C.3       41 DC      0.0000
    997 O3'       -6.8040     0.3797    98.0005 O.3       41 DC      0.0000
    998 C2'       -5.5460    -1.4598    98.9775 C.3       41 DC      0.0000
    999 C1'       -4.9964    -0.2891    99.8730 C.3       41 DC      0.0000
   1000 N1        -3.6028    -0.5602   100.1109 N.am      41 DC      0.0000
   1001 C2        -2.7685     0.4995   100.4281 C.2       41 DC      0.0000
   1002 O2        -3.0337     1.6987   100.5685 O.2       41 DC      0.0000
   1003 N3        -1.4419     0.2345   100.6263 N.2       41 DC      0.0000
   1004 C4        -0.9301    -1.0286   100.5103 C.2       41 DC      0.0000
   1005 N4         0.3772    -1.2423   100.7264 N.pl3     41 DC      0.0000
   1006 C5        -1.7984    -2.1058   100.1807 C.2       41 DC      0.0000
   1007 C6        -3.0918    -1.8214    99.9890 C.2       41 DC      0.0000
   1008 H5'       -9.1730    -1.2230   100.8222 H         41 DC      0.0000
   1009 H5''      -7.8818    -1.5952   101.9923 H         41 DC      0.0000
   1010 H4'       -7.7616     0.4826   100.3364 H         41 DC      0.0000
   1011 H3'       -7.6753    -1.4716    98.3928 H         41 DC      0.0000
   1012 H2'       -5.5883    -2.4184    99.4946 H         41 DC      0.0000
   1013 H2''      -5.0133    -1.5318    98.0292 H         41 DC      0.0000
   1014 H1'       -5.0889     0.6504    99.3281 H         41 DC      0.0000
   1015 H5        -1.4275    -3.1159   100.0886 H         41 DC      0.0000
   1016 H6        -3.7626    -2.6258    99.7257 H         41 DC      0.0000
   1017 H41        0.9821    -0.4700   100.9669 H         41 DC      0.0000
   1018 H42        0.7562    -2.1753   100.6485 H         41 DC      0.0000
   1019 P          8.6654     5.0292   134.5997 P.3       51 DG      0.0000
   1020 OP1       10.1484     5.0742   134.5981 O.co2     51 DG      0.0000
   1021 OP2        8.2546     3.9924   135.6554 O.co2     51 DG      0.0000
   1022 O5'        7.9044     6.4152   134.7781 O.3       51 DG      0.0000
   1023 C5'        7.2616     7.2338   133.7781 C.3       51 DG      0.0000
   1024 C4'        5.8756     7.5859   134.2769 C.3       51 DG      0.0000
   1025 O4'        4.9069     6.6493   133.8577 O.3       51 DG      0.0000
   1026 C3'        5.6844     7.7677   135.7691 C.3       51 DG      0.0000
   1027 O3'        5.0897     9.0563   136.0811 O.3       51 DG      0.0000
   1028 C2'        4.8243     6.5916   136.1910 C.3       51 DG      0.0000
   1029 C1'        4.0633     6.2410   134.9353 C.3       51 DG      0.0000
   1030 N9         3.7749     4.7956   134.9063 N.ar      51 DG      0.0000
   1031 C8         4.6174     3.7334   135.1351 C.ar      51 DG      0.0000
   1032 N7         4.0361     2.5585   135.0454 N.ar      51 DG      0.0000
   1033 C5         2.7155     2.8657   134.7284 C.ar      51 DG      0.0000
   1034 C6         1.5835     2.0442   134.5025 C.2       51 DG      0.0000
   1035 O6         1.5173     0.8148   134.5238 O.2       51 DG      0.0000
   1036 N1         0.4246     2.7144   134.2210 N.am      51 DG      0.0000
   1037 C2         0.3524     4.0056   134.1603 C.2       51 DG      0.0000
   1038 N2        -0.8335     4.3726   133.8636 N.pl3     51 DG      0.0000
   1039 N3         1.4086     4.8983   134.3691 N.2       51 DG      0.0000
   1040 C4         2.5410     4.2342   134.6416 C.ar      51 DG      0.0000
   1041 H5'        7.8392     8.1445   133.6194 H         51 DG      0.0000
   1042 H5''       7.1856     6.6794   132.8427 H         51 DG      0.0000
   1043 H4'        5.6106     8.5356   133.8122 H         51 DG      0.0000
   1044 H3'        6.6533     7.6946   136.2630 H         51 DG      0.0000
   1045 H2'        5.4420     5.7553   136.5179 H         51 DG      0.0000
   1046 H2''       4.1361     6.8883   136.9825 H         51 DG      0.0000
   1047 H1'        3.1294     6.8023   134.9034 H         51 DG      0.0000
   1048 H8         5.6650     3.8543   135.3682 H         51 DG      0.0000
   1049 H1        -0.4137     2.1768   134.0526 H         51 DG      0.0000
   1050 H21       -1.5550     3.6807   133.7192 H         51 DG      0.0000
   1051 H22       -1.0504     5.3549   133.7731 H         51 DG      0.0000
   1052 P          4.5166     9.4074   137.5096 P.3       52 DT      0.0000
   1053 OP1        4.8024    10.7956   138.0213 O.co2     52 DT      0.0000
   1054 OP2        5.3291     8.4769   138.4283 O.co2     52 DT      0.0000
   1055 O5'        3.0278     8.9767   137.5382 O.3       52 DT      0.0000
   1056 C5'        1.9263     9.9150   137.3942 C.3       52 DT      0.0000
   1057 C4'        0.6816     9.0543   137.4517 C.3       52 DT      0.0000
   1058 O4'        0.9579     7.6985   137.1766 O.3       52 DT      0.0000
   1059 C3'       -0.0598     9.0344   138.7644 C.3       52 DT      0.0000
   1060 O3'       -1.3503     9.6336   138.5762 O.3       52 DT      0.0000
   1061 C2'       -0.1759     7.5616   139.1567 C.3       52 DT      0.0000
   1062 C1'       -0.0904     6.9039   137.8039 C.3       52 DT      0.0000
   1063 N1         0.4020     5.5296   137.9006 N.am      52 DT      0.0000
   1064 C2        -0.5016     4.5210   137.7026 C.2       52 DT      0.0000
   1065 O2        -1.6880     4.7352   137.4644 O.2       52 DT      0.0000
   1066 N3        -0.0314     3.2379   137.7837 N.am      52 DT      0.0000
   1067 C4         1.2637     2.9445   138.0396 C.2       52 DT      0.0000
   1068 O4         1.5468     1.7187   138.0849 O.2       52 DT      0.0000
   1069 C5         2.1954     4.0133   138.2393 C.2       52 DT      0.0000
   1070 C7         3.6359     3.7320   138.5192 C.3       52 DT      0.0000
   1071 C6         1.7266     5.2651   138.1578 C.2       52 DT      0.0000
   1072 H5'        1.9302    10.6406   138.2076 H         52 DT      0.0000
   1073 H5''       1.9883    10.4253   136.4330 H         52 DT      0.0000
   1074 H4'       -0.0066     9.4145   136.6872 H         52 DT      0.0000
   1075 H3'        0.5017     9.5817   139.5215 H         52 DT      0.0000
   1076 H2'        0.6439     7.2532   139.8055 H         52 DT      0.0000
   1077 H2''      -1.1389     7.3600   139.6259 H         52 DT      0.0000
   1078 H1'       -1.0322     6.9644   137.2586 H         52 DT      0.0000
   1079 H3        -0.6805     2.4765   137.6462 H         52 DT      0.0000
   1080 H6         2.4087     6.0907   138.2982 H         52 DT      0.0000
   1081 H71        4.2207     3.8932   137.6136 H         52 DT      0.0000
   1082 H72        3.7473     2.6975   138.8439 H         52 DT      0.0000
   1083 H73        3.9906     4.3996   139.3045 H         52 DT      0.0000
   1084 P         -1.8373    10.5114   139.8562 P.3       53 DG      0.0000
   1085 OP1       -2.5570    11.6478   139.1411 O.co2     53 DG      0.0000
   1086 OP2       -0.6698    10.9324   140.6097 O.co2     53 DG      0.0000
   1087 O5'       -2.8344     9.3718   140.4657 O.3       53 DG      0.0000
   1088 C5'       -3.6553     8.8061   139.3751 C.3       53 DG      0.0000
   1089 C4'       -4.3040     7.5572   139.8951 C.3       53 DG      0.0000
   1090 O4'       -3.5944     6.3609   139.7146 O.3       53 DG      0.0000
   1091 C3'       -4.6426     7.6499   141.4032 C.3       53 DG      0.0000
   1092 O3'       -6.0508     7.3516   141.5620 O.3       53 DG      0.0000
   1093 C2'       -3.6729     6.6879   142.0558 C.3       53 DG      0.0000
   1094 C1'       -3.5141     5.6257   140.9742 C.3       53 DG      0.0000
   1095 N9        -2.2660     4.8732   141.1437 N.ar      53 DG      0.0000
   1096 C8        -1.0250     5.3393   141.4799 C.ar      53 DG      0.0000
   1097 N7        -0.0962     4.4125   141.5657 N.ar      53 DG      0.0000
   1098 C5        -0.7861     3.2482   141.2357 C.ar      53 DG      0.0000
   1099 C6        -0.3428     1.8979   141.1413 C.2       53 DG      0.0000
   1100 O6         0.7977     1.4508   141.3336 O.2       53 DG      0.0000
   1101 N1        -1.3285     0.9980   140.8063 N.am      53 DG      0.0000
   1102 C2        -2.6139     1.3873   140.5825 C.2       53 DG      0.0000
   1103 N2        -3.4372     0.3768   140.2737 N.pl3     53 DG      0.0000
   1104 N3        -3.0754     2.6338   140.6535 N.2       53 DG      0.0000
   1105 C4        -2.1141     3.5146   140.9801 C.ar      53 DG      0.0000
   1106 H5'       -4.4188     9.5237   139.0746 H         53 DG      0.0000
   1107 H5''      -3.0204     8.5645   138.5227 H         53 DG      0.0000
   1108 H4'       -5.2498     7.4473   139.3646 H         53 DG      0.0000
   1109 H3'       -4.4440     8.6612   141.7579 H         53 DG      0.0000
   1110 H2'       -2.7225     7.1726   142.2787 H         53 DG      0.0000
   1111 H2''      -4.1065     6.2568   142.9582 H         53 DG      0.0000
   1112 H1'       -4.3541     4.9337   141.0331 H         53 DG      0.0000
   1113 H8        -0.8238     6.3849   141.6606 H         53 DG      0.0000
   1114 H1        -1.0914     0.0196   140.7239 H         53 DG      0.0000
   1115 H21       -3.0815    -0.5671   140.2235 H         53 DG      0.0000
   1116 H22       -4.4138     0.5589   140.0910 H         53 DG      0.0000
   1117 P         -6.7600     7.4662   142.9505 P.3       54 DA      0.0000
   1118 OP1       -7.3360     8.7985   143.3058 O.co2     54 DA      0.0000
   1119 OP2       -5.4859     7.2465   143.8462 O.co2     54 DA      0.0000
   1120 O5'       -7.6308     6.1645   143.1996 O.3       54 DA      0.0000
   1121 C5'       -8.1335     5.2996   142.1705 C.3       54 DA      0.0000
   1122 C4'       -7.8222     3.8893   142.6449 C.3       54 DA      0.0000
   1123 O4'       -6.4367     3.6348   142.5545 O.3       54 DA      0.0000
   1124 C3'       -8.2443     3.5476   144.0739 C.3       54 DA      0.0000
   1125 O3'       -8.9307     2.2799   144.1262 O.3       54 DA      0.0000
   1126 C2'       -6.8987     3.5310   144.8093 C.3       54 DA      0.0000
   1127 C1'       -6.0417     2.8842   143.7317 C.3       54 DA      0.0000
   1128 N9        -4.5999     3.0237   143.9602 N.ar      54 DA      0.0000
   1129 C8        -3.8494     4.1445   144.1759 C.ar      54 DA      0.0000
   1130 N7        -2.5677     3.9039   144.3409 N.ar      54 DA      0.0000
   1131 C5        -2.4670     2.5278   144.2007 C.ar      54 DA      0.0000
   1132 C6        -1.3530     1.6615   144.2487 C.ar      54 DA      0.0000
   1133 N6        -0.0972     2.0580   144.4684 N.pl3     54 DA      0.0000
   1134 N1        -1.6355     0.3383   144.0588 N.ar      54 DA      0.0000
   1135 C2        -2.9020    -0.0854   143.8411 C.ar      54 DA      0.0000
   1136 N3        -3.9975     0.6710   143.7828 N.ar      54 DA      0.0000
   1137 C4        -3.7006     1.9699   143.9697 C.ar      54 DA      0.0000
   1138 H5'       -7.6338     5.5027   141.2233 H         54 DA      0.0000
   1139 H5''      -9.2102     5.4305   142.0627 H         54 DA      0.0000
   1140 H4'       -8.3303     3.1954   141.9751 H         54 DA      0.0000
   1141 H3'       -8.8813     4.3357   144.4753 H         54 DA      0.0000
   1142 H2'       -6.5555     4.5360   145.0548 H         54 DA      0.0000
   1143 H2''      -6.9467     2.9048   145.7002 H         54 DA      0.0000
   1144 H1'       -6.3068     1.8332   143.6172 H         54 DA      0.0000
   1145 H8        -4.2710     5.1383   144.2080 H         54 DA      0.0000
   1146 H2        -3.0392    -1.1473   143.6997 H         54 DA      0.0000
   1147 H61        0.2357     3.0066   144.3710 H         54 DA      0.0000
   1148 H62        0.6499     1.4003   144.2969 H         54 DA      0.0000
   1149 P        -10.0618     1.9392   145.2676 P.3       55 DA      0.0000
   1150 OP1      -11.3883     1.6729   144.6006 O.co2     55 DA      0.0000
   1151 OP2      -10.0042     3.1591   146.0985 O.co2     55 DA      0.0000
   1152 O5'       -9.5950     0.5090   145.7985 O.3       55 DA      0.0000
   1153 C5'       -9.5210    -0.6530   144.9741 C.3       55 DA      0.0000
   1154 C4'       -8.3977    -1.5314   145.4964 C.3       55 DA      0.0000
   1155 O4'       -7.1822    -0.8380   145.5246 O.3       55 DA      0.0000
   1156 C3'       -8.5835    -2.1662   146.8637 C.3       55 DA      0.0000
   1157 O3'       -8.6275    -3.5908   146.7859 O.3       55 DA      0.0000
   1158 C2'       -7.4268    -1.5939   147.6925 C.3       55 DA      0.0000
   1159 C1'       -6.3960    -1.2223   146.6987 C.3       55 DA      0.0000
   1160 N9        -5.4685    -0.1082   146.9667 N.ar      55 DA      0.0000
   1161 C8        -5.7152     1.2384   147.0819 C.ar      55 DA      0.0000
   1162 N7        -4.6385     1.9687   147.2512 N.ar      55 DA      0.0000
   1163 C5        -3.6007     1.0430   147.2142 C.ar      55 DA      0.0000
   1164 C6        -2.1900     1.1955   147.3347 C.ar      55 DA      0.0000
   1165 N6        -1.5530     2.3439   147.5263 N.pl3     55 DA      0.0000
   1166 N1        -1.4581     0.0386   147.2365 N.ar      55 DA      0.0000
   1167 C2        -2.0785    -1.1622   147.0474 C.ar      55 DA      0.0000
   1168 N3        -3.3851    -1.3745   146.9396 N.ar      55 DA      0.0000
   1169 C4        -4.0907    -0.2294   147.0314 C.ar      55 DA      0.0000
   1170 H5'       -9.3141    -0.3625   143.9441 H         55 DA      0.0000
   1171 H5''     -10.4645    -1.1969   145.0201 H         55 DA      0.0000
   1172 H4'       -8.2784    -2.3475   144.7837 H         55 DA      0.0000
   1173 H3'       -9.5234    -1.8117   147.2870 H         55 DA      0.0000
   1174 H2'       -7.7531    -0.7177   148.2528 H         55 DA      0.0000
   1175 H2''      -7.0388    -2.3527   148.3721 H         55 DA      0.0000
   1176 H1'       -5.8129    -2.1098   146.4526 H         55 DA      0.0000
   1177 H8        -6.7088     1.6591   147.0371 H         55 DA      0.0000
   1178 H2        -1.4401    -2.0306   146.9782 H         55 DA      0.0000
   1179 H61       -2.0259     3.1746   147.8525 H         55 DA      0.0000
   1180 H62       -0.5614     2.3887   147.3395 H         55 DA      0.0000
   1181 P         -9.5136    -4.5628   147.7421 P.3       56 DT      0.0000
   1182 OP1      -10.1709    -5.6837   146.9448 O.co2     56 DT      0.0000
   1183 OP2      -10.4189    -3.7859   148.5627 O.co2     56 DT      0.0000
   1184 O5'       -8.3419    -5.3814   148.5558 O.3       56 DT      0.0000
   1185 C5'       -7.2381    -5.7176   147.6107 C.3       56 DT      0.0000
   1186 C4'       -5.9798    -5.4552   148.3985 C.3       56 DT      0.0000
   1187 O4'       -5.7071    -4.0852   148.5904 O.3       56 DT      0.0000
   1188 C3'       -6.0440    -6.0555   149.8151 C.3       56 DT      0.0000
   1189 O3'       -5.3748    -7.3030   149.8167 O.3       56 DT      0.0000
   1190 C2'       -5.4186    -4.9904   150.7123 C.3       56 DT      0.0000
   1191 C1'       -4.7622    -4.0855   149.7477 C.3       56 DT      0.0000
   1192 N1        -4.5191    -2.6926   150.0874 N.am      56 DT      0.0000
   1193 C2        -3.1909    -2.3019   150.2254 C.2       56 DT      0.0000
   1194 O2        -2.2988    -3.1357   150.1374 O.2       56 DT      0.0000
   1195 N3        -2.9286    -0.9895   150.4794 N.am      56 DT      0.0000
   1196 C4        -3.9127    -0.0504   150.5995 C.2       56 DT      0.0000
   1197 O4        -3.5874     1.1529   150.8547 O.2       56 DT      0.0000
   1198 C5        -5.2724    -0.4721   150.4279 C.2       56 DT      0.0000
   1199 C7        -6.3930     0.5266   150.5155 C.3       56 DT      0.0000
   1200 C6        -5.5254    -1.7672   150.1722 C.2       56 DT      0.0000
   1201 H5'       -7.2936    -6.7636   147.3091 H         56 DT      0.0000
   1202 H5''      -7.2788    -5.0689   146.7357 H         56 DT      0.0000
   1203 H4'       -5.1396    -5.9049   147.8693 H         56 DT      0.0000
   1204 H3'       -7.0859    -6.2027   150.0994 H         56 DT      0.0000
   1205 H2'       -6.1817    -4.4643   151.2857 H         56 DT      0.0000
   1206 H2''      -4.6811    -5.4377   151.3787 H         56 DT      0.0000
   1207 H1'       -3.8219    -4.5364   149.4304 H         56 DT      0.0000
   1208 H3        -1.9669    -0.6991   150.5831 H         56 DT      0.0000
   1209 H6        -6.5474    -2.0861   150.0300 H         56 DT      0.0000
   1210 H71       -5.9844     1.5143   150.7285 H         56 DT      0.0000
   1211 H72       -6.9308     0.5528   149.5677 H         56 DT      0.0000
   1212 H73       -7.0768     0.2364   151.3133 H         56 DT      0.0000
   1213 P         -5.3375    -8.3909   150.9234 P.3       57 DT      0.0000
   1214 OP1       -4.9882    -9.7722   150.3113 O.co2     57 DT      0.0000
   1215 OP2       -6.6830    -8.3910   151.5533 O.co2     57 DT      0.0000
   1216 O5'       -4.0501    -8.0221   151.8057 O.3       57 DT      0.0000
   1217 C5'       -2.8054    -8.2566   151.0939 C.3       57 DT      0.0000
   1218 C4'       -1.7181    -7.4960   151.7701 C.3       57 DT      0.0000
   1219 O4'       -1.9031    -6.0861   151.7467 O.3       57 DT      0.0000
   1220 C3'       -1.4875    -7.8878   153.2367 C.3       57 DT      0.0000
   1221 O3'       -0.1018    -7.9989   153.5007 O.3       57 DT      0.0000
   1222 C2'       -2.0635    -6.6549   153.9730 C.3       57 DT      0.0000
   1223 C1'       -1.4745    -5.5909   153.0695 C.3       57 DT      0.0000
   1224 N1        -2.0331    -4.2849   153.3672 N.am      57 DT      0.0000
   1225 C2        -1.1771    -3.1969   153.4220 C.2       57 DT      0.0000
   1226 O2         0.0271    -3.3756   153.2335 O.2       57 DT      0.0000
   1227 N3        -1.7109    -1.9674   153.6879 N.am      57 DT      0.0000
   1228 C4        -3.0437    -1.7844   153.8949 C.2       57 DT      0.0000
   1229 O4        -3.4676    -0.6144   154.1182 O.2       57 DT      0.0000
   1230 C5        -3.9155    -2.9102   153.8298 C.2       57 DT      0.0000
   1231 C7        -5.3967    -2.7888   154.0398 C.3       57 DT      0.0000
   1232 C6        -3.3744    -4.1104   153.5687 C.2       57 DT      0.0000
   1233 H5'       -2.5708    -9.3210   151.1063 H         57 DT      0.0000
   1234 H5''      -2.9037    -7.9158   150.0632 H         57 DT      0.0000
   1235 H4'       -0.7944    -7.7082   151.2316 H         57 DT      0.0000
   1236 H3'       -2.0224    -8.8005   153.4991 H         57 DT      0.0000
   1237 H2'       -3.1534    -6.6431   153.9718 H         57 DT      0.0000
   1238 H2''      -1.6678    -6.5779   154.9857 H         57 DT      0.0000
   1239 H1'       -0.3873    -5.5750   153.1451 H         57 DT      0.0000
   1240 H3        -1.0958    -1.1676   153.7323 H         57 DT      0.0000
   1241 H6        -4.0235    -4.9719   153.5156 H         57 DT      0.0000
   1242 H71       -5.6519    -1.7480   154.2387 H         57 DT      0.0000
   1243 H72       -5.9190    -3.1260   153.1445 H         57 DT      0.0000
   1244 H73       -5.6951    -3.4046   154.8882 H         57 DT      0.0000
   1245 P          0.8539    -9.0852   154.1087 P.3       58 DC      0.0000
   1246 OP1        1.7294    -9.7123   153.0407 O.co2     58 DC      0.0000
   1247 OP2       -0.0264   -10.0117   154.8436 O.co2     58 DC      0.0000
   1248 O5'        1.8045    -8.0488   154.9347 O.3       58 DC      0.0000
   1249 C5'        2.2152    -7.0681   153.9124 C.3       58 DC      0.0000
   1250 C4'        3.0435    -6.0262   154.6089 C.3       58 DC      0.0000
   1251 O4'        2.3332    -4.8525   154.8559 O.3       58 DC      0.0000
   1252 C3'        3.7102    -6.4865   155.9004 C.3       58 DC      0.0000
   1253 O3'        5.1177    -6.3040   155.8207 O.3       58 DC      0.0000
   1254 C2'        2.9343    -5.6867   156.9492 C.3       58 DC      0.0000
   1255 C1'        2.5265    -4.4492   156.2528 C.3       58 DC      0.0000
   1256 N1         1.2083    -3.8995   156.5849 N.am      58 DC      0.0000
   1257 C2         1.1668    -2.5307   156.8407 C.2       58 DC      0.0000
   1258 O2         2.1945    -1.8462   156.8452 O.2       58 DC      0.0000
   1259 N3        -0.0587    -1.9752   157.1145 N.2       58 DC      0.0000
   1260 C4        -1.1984    -2.7244   157.1046 C.2       58 DC      0.0000
   1261 N4        -2.3354    -2.0956   157.3814 N.pl3     58 DC      0.0000
   1262 C5        -1.1430    -4.1079   156.8266 C.2       58 DC      0.0000
   1263 C6         0.0684    -4.6389   156.5618 C.2       58 DC      0.0000
   1264 H5'        2.8054    -7.5593   153.1388 H         58 DC      0.0000
   1265 H5''       1.3342    -6.6049   153.4682 H         58 DC      0.0000
   1266 H4'        3.8483    -5.7619   153.9230 H         58 DC      0.0000
   1267 H3'        3.5020    -7.5468   156.0437 H         58 DC      0.0000
   1268 H2'        2.0601    -6.2432   157.2871 H         58 DC      0.0000
   1269 H2''       3.5795    -5.4483   157.7947 H         58 DC      0.0000
   1270 H1'        3.2988    -3.6843   156.3337 H         58 DC      0.0000
   1271 H5        -2.0350    -4.7167   156.8260 H         58 DC      0.0000
   1272 H6         0.1348    -5.6900   156.3227 H         58 DC      0.0000
   1273 H41       -2.3293    -1.1054   157.5806 H         58 DC      0.0000
   1274 H42       -3.2058    -2.6077   157.3928 H         58 DC      0.0000
   1275 P          6.2326    -6.9996   156.7728 P.3       59 DA      0.0000
   1276 OP1        7.5240    -7.0503   155.9790 O.co2     59 DA      0.0000
   1277 OP2        5.7507    -8.3525   157.1183 O.co2     59 DA      0.0000
   1278 O5'        6.3314    -5.9916   158.0698 O.3       59 DA      0.0000
   1279 C5'        6.5680    -4.5809   157.7746 C.3       59 DA      0.0000
   1280 C4'        6.5345    -3.7723   159.0298 C.3       59 DA      0.0000
   1281 O4'        5.3073    -3.0777   159.2720 O.3       59 DA      0.0000
   1282 C3'        6.7223    -4.5636   160.3351 C.3       59 DA      0.0000
   1283 O3'        7.1194    -3.6554   161.3650 O.3       59 DA      0.0000
   1284 C2'        5.2713    -5.0385   160.5497 C.3       59 DA      0.0000
   1285 C1'        4.6103    -3.6682   160.3664 C.3       59 DA      0.0000
   1286 N9         3.1704    -3.8403   160.2721 N.ar      59 DA      0.0000
   1287 C8         2.4147    -4.9740   160.1562 C.ar      59 DA      0.0000
   1288 N7         1.1090    -4.7746   160.1376 N.ar      59 DA      0.0000
   1289 C5         0.9982    -3.3955   160.2452 C.ar      59 DA      0.0000
   1290 C6        -0.1255    -2.5334   160.2797 C.ar      59 DA      0.0000
   1291 N6        -1.3808    -2.9353   160.1944 N.pl3     59 DA      0.0000
   1292 N1         0.1426    -1.2010   160.4123 N.ar      59 DA      0.0000
   1293 C2         1.4297    -0.7401   160.4925 C.ar      59 DA      0.0000
   1294 N3         2.5325    -1.4846   160.4626 N.ar      59 DA      0.0000
   1295 C4         2.2475    -2.8041   160.3396 C.ar      59 DA      0.0000
   1296 H5'        7.5448    -4.4718   157.3034 H         59 DA      0.0000
   1297 H5''       5.7969    -4.2210   157.0933 H         59 DA      0.0000
   1298 H4'        7.3316    -3.0312   158.9709 H         59 DA      0.0000
   1299 H3'        7.4192    -5.3939   160.2214 H         59 DA      0.0000
   1300 H2'        4.9519    -5.7613   159.7989 H         59 DA      0.0000
   1301 H2''       5.1224    -5.4208   161.5596 H         59 DA      0.0000
   1302 H1'        4.8189    -3.0741   161.2560 H         59 DA      0.0000
   1303 H8         2.8525    -5.9587   160.0852 H         59 DA      0.0000
   1304 H2         1.5622     0.3274   160.5889 H         59 DA      0.0000
   1305 H61       -2.2733    -2.4981   160.3745 H         59 DA      0.0000
   1306 H62       -1.4673    -3.8911   159.8797 H         59 DA      0.0000
   1307 P          8.6362    -3.1652   161.5055 P.3       60 DC      0.0000
   1308 OP1        9.4328    -3.3556   160.2604 O.co2     60 DC      0.0000
   1309 OP2        9.1352    -4.0013   162.6484 O.co2     60 DC      0.0000
   1310 O5'        8.4923    -1.6116   161.7886 O.3       60 DC      0.0000
   1311 C5'        8.2912    -0.6591   160.7009 C.3       60 DC      0.0000
   1312 C4'        7.5021     0.4500   161.4059 C.3       60 DC      0.0000
   1313 O4'        6.2313    -0.0717   161.7179 O.3       60 DC      0.0000
   1314 C3'        8.1320     0.9163   162.7158 C.3       60 DC      0.0000
   1315 O3'        8.2922     2.3514   162.7837 O.3       60 DC      0.0000
   1316 C2'        7.1957     0.3578   163.7980 C.3       60 DC      0.0000
   1317 C1'        5.8850     0.3654   163.1218 C.3       60 DC      0.0000
   1318 N1         4.8393    -0.5914   163.4746 N.am      60 DC      0.0000
   1319 C2         3.5408    -0.0862   163.4477 C.2       60 DC      0.0000
   1320 O2         3.2950     1.0955   163.2408 O.2       60 DC      0.0000
   1321 N3         2.5264    -0.9561   163.7009 N.2       60 DC      0.0000
   1322 C4         2.7391    -2.2738   163.9342 C.2       60 DC      0.0000
   1323 N4         1.6648    -3.0262   164.1651 N.pl3     60 DC      0.0000
   1324 C5         4.0679    -2.7802   163.9408 C.2       60 DC      0.0000
   1325 C6         5.0637    -1.9158   163.6913 C.2       60 DC      0.0000
   1326 H5'        9.2412    -0.2884   160.3161 H         60 DC      0.0000
   1327 H5''       7.6991    -1.1055   159.9019 H         60 DC      0.0000
   1328 H4'        7.3907     1.3004   160.7332 H         60 DC      0.0000
   1329 H3'        9.1106     0.4480   162.8217 H         60 DC      0.0000
   1330 H2'        7.4848    -0.6533   164.0850 H         60 DC      0.0000
   1331 H2''       7.1817     1.0138   164.6682 H         60 DC      0.0000
   1332 H1'        5.4774     1.3762   163.1085 H         60 DC      0.0000
   1333 H5         4.2684    -3.8227   164.1393 H         60 DC      0.0000
   1334 H6         6.0785    -2.2842   163.6616 H         60 DC      0.0000
   1335 H41        0.7447    -2.6097   164.1541 H         60 DC      0.0000
   1336 H42        1.7701    -4.0133   164.3513 H         60 DC      0.0000
   1337 P         -8.4310    -0.9822   165.7432 P.3       60 DG      0.0000
   1338 OP1       -9.8967    -1.2203   165.9220 O.co2     60 DG      0.0000
   1339 OP2       -7.8130    -1.8543   164.6584 O.co2     60 DG      0.0000
   1340 O5'       -8.1611     0.6283   165.5360 O.3       60 DG      0.0000
   1341 C5'       -7.5657     1.3994   166.6317 C.3       60 DG      0.0000
   1342 C4'       -6.6108     2.4081   165.9974 C.3       60 DG      0.0000
   1343 O4'       -5.3054     1.9070   165.9016 O.3       60 DG      0.0000
   1344 C3'       -7.0041     2.8524   164.5911 C.3       60 DG      0.0000
   1345 O3'       -6.7814     4.2563   164.3241 O.3       60 DG      0.0000
   1346 C2'       -6.1314     1.9613   163.6888 C.3       60 DG      0.0000
   1347 C1'       -4.8568     1.8846   164.5126 C.3       60 DG      0.0000
   1348 N9        -4.1231     0.6370   164.2393 N.ar      60 DG      0.0000
   1349 C8        -4.6366    -0.6285   164.0827 C.ar      60 DG      0.0000
   1350 N7        -3.7318    -1.5454   163.8643 N.ar      60 DG      0.0000
   1351 C5        -2.5348    -0.8393   163.8891 C.ar      60 DG      0.0000
   1352 C6        -1.1898    -1.2683   163.7326 C.2       60 DG      0.0000
   1353 O6        -0.8011    -2.4285   163.5358 O.2       60 DG      0.0000
   1354 N1        -0.2614    -0.2603   163.8195 N.am      60 DG      0.0000
   1355 C2        -0.6033     1.0328   164.0402 C.2       60 DG      0.0000
   1356 N2         0.4043     1.8989   164.1035 N.pl3     60 DG      0.0000
   1357 N3        -1.8520     1.4888   164.1979 N.2       60 DG      0.0000
   1358 C4        -2.7623     0.4993   164.1146 C.ar      60 DG      0.0000
   1359 H5'       -8.3441     1.9200   167.1895 H         60 DG      0.0000
   1360 H5''      -7.0146     0.7344   167.2966 H         60 DG      0.0000
   1361 H4'       -6.5851     3.2924   166.6341 H         60 DG      0.0000
   1362 H3'       -8.0546     2.6166   164.4206 H         60 DG      0.0000
   1363 H2'       -6.5767     0.9768   163.5461 H         60 DG      0.0000
   1364 H2''      -5.9449     2.4451   162.7301 H         60 DG      0.0000
   1365 H1'       -4.2229     2.7472   164.3074 H         60 DG      0.0000
   1366 H8        -5.6933    -0.8454   164.1354 H         60 DG      0.0000
   1367 H1         0.7161    -0.4917   163.7147 H         60 DG      0.0000
   1368 H21        1.3548     1.5771   163.9884 H         60 DG      0.0000
   1369 H22        0.2189     2.8782   164.2667 H         60 DG      0.0000
   1370 P         -6.4525     4.6289   162.8006 P.3       59 DT      0.0000
   1371 OP1       -6.8806     6.0178   162.4097 O.co2     59 DT      0.0000
   1372 OP2       -7.2604     3.6004   162.1001 O.co2     59 DT      0.0000
   1373 O5'       -4.8620     4.4865   162.6697 O.3       59 DT      0.0000
   1374 C5'       -4.0684     5.6867   162.9374 C.3       59 DT      0.0000
   1375 C4'       -2.7629     5.5755   162.1803 C.3       59 DT      0.0000
   1376 O4'       -2.2514     4.2549   162.1530 O.3       59 DT      0.0000
   1377 C3'       -2.8789     6.0037   160.7256 C.3       59 DT      0.0000
   1378 O3'       -1.7285     6.7228   160.2305 O.3       59 DT      0.0000
   1379 C2'       -3.0761     4.6897   160.0028 C.3       59 DT      0.0000
   1380 C1'       -2.0944     3.8293   160.7809 C.3       59 DT      0.0000
   1381 N1        -2.5405     2.4353   160.6295 N.am      59 DT      0.0000
   1382 C2        -1.5547     1.4596   160.7363 C.2       59 DT      0.0000
   1383 O2        -0.3851     1.7758   160.9261 O.2       59 DT      0.0000
   1384 N3        -1.9505     0.1568   160.6162 N.am      59 DT      0.0000
   1385 C4        -3.2518    -0.1843   160.3986 C.2       59 DT      0.0000
   1386 O4        -3.5247    -1.4263   160.3010 O.2       59 DT      0.0000
   1387 C5        -4.2386     0.8371   160.2922 C.2       59 DT      0.0000
   1388 C7        -5.6774     0.4723   160.0633 C.3       59 DT      0.0000
   1389 C6        -3.8463     2.1079   160.4140 C.2       59 DT      0.0000
   1390 H5'       -4.6131     6.5699   162.6036 H         59 DT      0.0000
   1391 H5''      -3.8672     5.7623   164.0060 H         59 DT      0.0000
   1392 H4'       -2.0288     6.2167   162.6683 H         59 DT      0.0000
   1393 H3'       -3.7694     6.6200   160.6016 H         59 DT      0.0000
   1394 H2'       -4.0990     4.3244   160.0943 H         59 DT      0.0000
   1395 H2''      -2.7816     4.7707   158.9564 H         59 DT      0.0000
   1396 H1'       -1.0715     3.9662   160.4302 H         59 DT      0.0000
   1397 H3        -1.2581    -0.5747   160.6908 H         59 DT      0.0000
   1398 H6        -4.5816     2.8954   160.3398 H         59 DT      0.0000
   1399 H71       -5.7715    -0.6114   159.9946 H         59 DT      0.0000
   1400 H72       -6.2811     0.8373   160.8941 H         59 DT      0.0000
   1401 H73       -6.0242     0.9267   159.1351 H         59 DT      0.0000
   1402 P         -2.2953     8.0746   159.4521 P.3       58 DG      0.0000
   1403 OP1       -2.3375     9.2876   160.3234 O.co2     58 DG      0.0000
   1404 OP2       -3.6243     7.5527   159.0466 O.co2     58 DG      0.0000
   1405 O5'       -1.1385     8.2942   158.3713 O.3       58 DG      0.0000
   1406 C5'        0.1078     8.9030   158.7948 C.3       58 DG      0.0000
   1407 C4'        1.1893     7.9278   158.3470 C.3       58 DG      0.0000
   1408 O4'        0.7762     6.6032   158.6177 O.3       58 DG      0.0000
   1409 C3'        1.5320     8.0060   156.8593 C.3       58 DG      0.0000
   1410 O3'        2.9119     8.2482   156.6508 O.3       58 DG      0.0000
   1411 C2'        1.0020     6.7053   156.2826 C.3       58 DG      0.0000
   1412 C1'        1.0478     5.7713   157.4687 C.3       58 DG      0.0000
   1413 N9         0.0366     4.7180   157.3452 N.ar      58 DG      0.0000
   1414 C8        -1.3136     4.8529   157.1863 C.ar      58 DG      0.0000
   1415 N7        -1.9524     3.7110   157.1082 N.ar      58 DG      0.0000
   1416 C5        -0.9516     2.7536   157.2458 C.ar      58 DG      0.0000
   1417 C6        -0.9935     1.3344   157.2552 C.2       58 DG      0.0000
   1418 O6        -1.9874     0.6220   157.1562 O.2       58 DG      0.0000
   1419 N1         0.2229     0.7309   157.4042 N.am      58 DG      0.0000
   1420 C2         1.3845     1.4524   157.5371 C.2       58 DG      0.0000
   1421 N2         2.5018     0.7375   157.6727 N.pl3     58 DG      0.0000
   1422 N3         1.4934     2.7848   157.5414 N.2       58 DG      0.0000
   1423 C4         0.2803     3.3689   157.3907 C.ar      58 DG      0.0000
   1424 H5'        0.2434     9.8728   158.3160 H         58 DG      0.0000
   1425 H5''       0.1244     9.0124   159.8791 H         58 DG      0.0000
   1426 H4'        2.0941     8.1302   158.9200 H         58 DG      0.0000
   1427 H3'        0.9693     8.8300   156.4207 H         58 DG      0.0000
   1428 H2'       -0.0176     6.8249   155.9162 H         58 DG      0.0000
   1429 H2''       1.6546     6.3456   155.4870 H         58 DG      0.0000
   1430 H1'        2.0397     5.3276   157.5558 H         58 DG      0.0000
   1431 H8        -1.8085     5.8112   157.1302 H         58 DG      0.0000
   1432 H1         0.2698    -0.2779   157.4171 H         58 DG      0.0000
   1433 H21        2.4587    -0.2716   157.6737 H         58 DG      0.0000
   1434 H22        3.3912     1.2050   157.7745 H         58 DG      0.0000
   1435 P          4.0479     7.5729   155.7845 P.3       57 DA      0.0000
   1436 OP1        5.3679     7.5553   156.5659 O.co2     57 DA      0.0000
   1437 OP2        4.1707     8.4141   154.5918 O.co2     57 DA      0.0000
   1438 O5'        3.6189     6.0110   155.6097 O.3       57 DA      0.0000
   1439 C5'        4.0454     5.1973   156.7662 C.3       57 DA      0.0000
   1440 C4'        5.0266     4.1801   156.2383 C.3       57 DA      0.0000
   1441 O4'        4.4334     2.9259   156.0161 O.3       57 DA      0.0000
   1442 C3'        5.6396     4.5833   154.8978 C.3       57 DA      0.0000
   1443 O3'        7.0146     4.2919   154.8227 O.3       57 DA      0.0000
   1444 C2'        4.7183     3.9031   153.9013 C.3       57 DA      0.0000
   1445 C1'        4.0876     2.7464   154.6251 C.3       57 DA      0.0000
   1446 N9         2.6331     2.6916   154.3996 N.ar      57 DA      0.0000
   1447 C8         1.7458     3.7295   154.2132 C.ar      57 DA      0.0000
   1448 N7         0.5036     3.3513   154.0174 N.ar      57 DA      0.0000
   1449 C5         0.5753     1.9666   154.1042 C.ar      57 DA      0.0000
   1450 C6        -0.4224     0.9695   153.9986 C.ar      57 DA      0.0000
   1451 N6        -1.7007     1.2278   153.7861 N.pl3     57 DA      0.0000
   1452 N1         0.0027    -0.3182   154.1223 N.ar      57 DA      0.0000
   1453 C2         1.3170    -0.6145   154.3468 C.ar      57 DA      0.0000
   1454 N3         2.3019     0.2738   154.4627 N.ar      57 DA      0.0000
   1455 C4         1.8672     1.5499   154.3266 C.ar      57 DA      0.0000
   1456 H5'        4.5244     5.8290   157.5142 H         57 DA      0.0000
   1457 H5''       3.1842     4.6915   157.2028 H         57 DA      0.0000
   1458 H4'        5.8294     4.0611   156.9660 H         57 DA      0.0000
   1459 H3'        5.5187     5.6607   154.7847 H         57 DA      0.0000
   1460 H2'        5.2889     3.5452   153.0444 H         57 DA      0.0000
   1461 H2''       3.9480     4.5999   153.5707 H         57 DA      0.0000
   1462 H1'        4.5355     1.8195   154.2669 H         57 DA      0.0000
   1463 H8         2.0467     4.7666   154.2271 H         57 DA      0.0000
   1464 H2         1.5795    -1.6581   154.4381 H         57 DA      0.0000
   1465 H61       -2.4212     0.5942   154.1015 H         57 DA      0.0000
   1466 H62       -1.9619     2.0737   153.2999 H         57 DA      0.0000
   1467 P          7.9039     3.7417   153.6381 P.3       56 DA      0.0000
   1468 OP1        9.3146     3.3382   154.1580 O.co2     56 DA      0.0000
   1469 OP2        8.0437     4.9024   152.7044 O.co2     56 DA      0.0000
   1470 O5'        7.2426     2.4031   153.1354 O.3       56 DA      0.0000
   1471 C5'        7.7513     1.1324   153.5912 C.3       56 DA      0.0000
   1472 C4'        6.9495     0.0581   152.8893 C.3       56 DA      0.0000
   1473 O4'        5.5853     0.3445   152.7685 O.3       56 DA      0.0000
   1474 C3'        7.4540    -0.2569   151.4818 C.3       56 DA      0.0000
   1475 O3'        7.9808    -1.5968   151.4503 O.3       56 DA      0.0000
   1476 C2'        6.2627     0.0775   150.5822 C.3       56 DA      0.0000
   1477 C1'        5.0829    -0.1416   151.4800 C.3       56 DA      0.0000
   1478 N9         3.8840     0.6343   151.1804 N.ar      56 DA      0.0000
   1479 C8         3.7495     1.9934   150.9856 C.ar      56 DA      0.0000
   1480 N7         2.5100     2.3796   150.7802 N.ar      56 DA      0.0000
   1481 C5         1.7756     1.2121   150.8547 C.ar      56 DA      0.0000
   1482 C6         0.3923     0.9576   150.7212 C.ar      56 DA      0.0000
   1483 N6        -0.5139     1.8997   150.4781 N.pl3     56 DA      0.0000
   1484 N1         0.0228    -0.3551   150.8701 N.ar      56 DA      0.0000
   1485 C2         0.9173    -1.3300   151.1226 C.ar      56 DA      0.0000
   1486 N3         2.2362    -1.1647   151.2615 N.ar      56 DA      0.0000
   1487 C4         2.5971     0.1296   151.1142 C.ar      56 DA      0.0000
   1488 H5'        8.8068     1.0385   153.3361 H         56 DA      0.0000
   1489 H5''       7.6216     1.0465   154.6700 H         56 DA      0.0000
   1490 H4'        7.0399    -0.8538   153.4794 H         56 DA      0.0000
   1491 H3'        8.2637     0.4339   151.2468 H         56 DA      0.0000
   1492 H2'        6.3082     1.1122   150.2423 H         56 DA      0.0000
   1493 H2''       6.2254    -0.6022   149.7309 H         56 DA      0.0000
   1494 H1'        4.8434    -1.2033   151.5411 H         56 DA      0.0000
   1495 H8         4.5855     2.6770   151.0006 H         56 DA      0.0000
   1496 H2         0.5345    -2.3350   151.2217 H         56 DA      0.0000
   1497 H61       -1.4548     1.6796   150.7721 H         56 DA      0.0000
   1498 H62       -0.2780     2.7739   150.0308 H         56 DA      0.0000
   1499 P          8.5660    -2.1725   150.0653 P.3       55 DT      0.0000
   1500 OP1        9.3862    -3.4243   150.1235 O.co2     55 DT      0.0000
   1501 OP2        9.2787    -0.9626   149.5527 O.co2     55 DT      0.0000
   1502 O5'        7.1157    -2.5967   149.3622 O.3       55 DT      0.0000
   1503 C5'        6.2625    -3.2116   150.3745 C.3       55 DT      0.0000
   1504 C4'        5.2379    -4.0598   149.6916 C.3       55 DT      0.0000
   1505 O4'        4.0114    -3.4172   149.5111 O.3       55 DT      0.0000
   1506 C3'        5.6698    -4.5828   148.3303 C.3       55 DT      0.0000
   1507 O3'        5.2034    -5.9110   148.0630 O.3       55 DT      0.0000
   1508 C2'        5.0706    -3.4888   147.4370 C.3       55 DT      0.0000
   1509 C1'        3.7150    -3.2789   148.0770 C.3       55 DT      0.0000
   1510 N1         3.2212    -1.9081   147.8470 N.am      55 DT      0.0000
   1511 C2         1.8539    -1.7334   147.7254 C.2       55 DT      0.0000
   1512 O2         1.0832    -2.6938   147.7622 O.2       55 DT      0.0000
   1513 N3         1.3818    -0.4598   147.5580 N.am      55 DT      0.0000
   1514 C4         2.2136     0.6151   147.5095 C.2       55 DT      0.0000
   1515 O4         1.6915     1.7547   147.3240 O.2       55 DT      0.0000
   1516 C5         3.6148     0.4157   147.6579 C.2       55 DT      0.0000
   1517 C7         4.5686     1.5854   147.6058 C.3       55 DT      0.0000
   1518 C6         4.0595    -0.8334   147.8309 C.2       55 DT      0.0000
   1519 H5'        6.8680    -3.8307   151.0366 H         55 DT      0.0000
   1520 H5''       5.7654    -2.4341   150.9545 H         55 DT      0.0000
   1521 H4'        5.0585    -4.9260   150.3286 H         55 DT      0.0000
   1522 H3'        6.7571    -4.5570   148.2583 H         55 DT      0.0000
   1523 H2'        5.6696    -2.5786   147.4676 H         55 DT      0.0000
   1524 H2''       4.9622    -3.8444   146.4124 H         55 DT      0.0000
   1525 H1'        2.9944    -4.0256   147.7430 H         55 DT      0.0000
   1526 H3         0.3864    -0.3139   147.4679 H         55 DT      0.0000
   1527 H6         5.1191    -0.9963   147.9622 H         55 DT      0.0000
   1528 H71        4.9806     1.6744   146.6006 H         55 DT      0.0000
   1529 H72        5.3787     1.4253   148.3173 H         55 DT      0.0000
   1530 H73        4.0354     2.5008   147.8623 H         55 DT      0.0000
   1531 P          5.5430    -6.4934   146.5731 P.3       54 DT      0.0000
   1532 OP1        6.5175    -7.6634   146.7211 O.co2     54 DT      0.0000
   1533 OP2        6.2349    -5.3410   145.9033 O.co2     54 DT      0.0000
   1534 O5'        4.2043    -6.9240   145.9211 O.3       54 DT      0.0000
   1535 C5'        3.0832    -7.3894   146.6725 C.3       54 DT      0.0000
   1536 C4'        1.8381    -7.0353   145.9245 C.3       54 DT      0.0000
   1537 O4'        1.4529    -5.6884   145.8675 O.3       54 DT      0.0000
   1538 C3'        1.7291    -7.5075   144.4584 C.3       54 DT      0.0000
   1539 O3'        0.3292    -7.7845   144.3547 O.3       54 DT      0.0000
   1540 C2'        2.1231    -6.2363   143.6947 C.3       54 DT      0.0000
   1541 C1'        1.2472    -5.2739   144.4704 C.3       54 DT      0.0000
   1542 N1         1.6044    -3.8563   144.3642 N.am      54 DT      0.0000
   1543 C2         0.5246    -2.9632   144.3636 C.2       54 DT      0.0000
   1544 O2        -0.6381    -3.3707   144.4066 O.2       54 DT      0.0000
   1545 N3         0.8203    -1.6314   144.3101 N.am      54 DT      0.0000
   1546 C4         2.0984    -1.1611   144.2504 C.2       54 DT      0.0000
   1547 O4         2.2689     0.0937   144.1880 O.2       54 DT      0.0000
   1548 C5         3.1752    -2.0892   144.2586 C.2       54 DT      0.0000
   1549 C7         4.6003    -1.5805   144.1972 C.3       54 DT      0.0000
   1550 C6         2.8813    -3.3910   144.3251 C.2       54 DT      0.0000
   1551 H5'        3.1447    -8.4708   146.7947 H         54 DT      0.0000
   1552 H5''       3.0726    -6.9095   147.6510 H         54 DT      0.0000
   1553 H4'        1.0308    -7.5437   146.4517 H         54 DT      0.0000
   1554 H3'        2.3607    -8.3659   144.2297 H         54 DT      0.0000
   1555 H2'        1.8556    -6.2847   142.6391 H         54 DT      0.0000
   1556 H2''       3.1802    -6.0055   143.8263 H         54 DT      0.0000
   1557 H1'        0.2031    -5.4152   144.1914 H         54 DT      0.0000
   1558 H3         0.0600    -0.9666   144.3150 H         54 DT      0.0000
   1559 H6         3.6924    -4.1036   144.3488 H         54 DT      0.0000
   1560 H71        4.5963    -0.4916   144.1484 H         54 DT      0.0000
   1561 H72        5.0912    -1.9819   143.3106 H         54 DT      0.0000
   1562 H73        5.1396    -1.9022   145.0882 H         54 DT      0.0000
   1563 P         -0.3861    -8.5493   143.2084 P.3       53 DC      0.0000
   1564 OP1       -1.3081    -9.6072   143.8176 O.co2     53 DC      0.0000
   1565 OP2        0.7000    -9.2190   142.4266 O.co2     53 DC      0.0000
   1566 O5'       -1.1814    -7.3348   142.4690 O.3       53 DC      0.0000
   1567 C5'       -2.3515    -6.8315   143.1935 C.3       53 DC      0.0000
   1568 C4'       -3.3523    -6.4256   142.1430 C.3       53 DC      0.0000
   1569 O4'       -3.3355    -5.0386   141.8977 O.3       53 DC      0.0000
   1570 C3'       -3.1729    -7.0933   140.7786 C.3       53 DC      0.0000
   1571 O3'       -4.3897    -7.3366   140.0693 O.3       53 DC      0.0000
   1572 C2'       -2.2343    -6.0912   140.0925 C.3       53 DC      0.0000
   1573 C1'       -2.7261    -4.7523   140.6391 C.3       53 DC      0.0000
   1574 N1        -1.5566    -3.8501   140.7568 N.am      53 DC      0.0000
   1575 C2        -1.8127    -2.4798   140.7741 C.2       53 DC      0.0000
   1576 O2        -2.9701    -2.0437   140.7054 O.2       53 DC      0.0000
   1577 N3        -0.7350    -1.6424   140.8773 N.2       53 DC      0.0000
   1578 C4         0.5388    -2.1098   140.9481 C.2       53 DC      0.0000
   1579 N4         1.5572    -1.2528   141.0500 N.pl3     53 DC      0.0000
   1580 C5         0.7725    -3.5131   140.9229 C.2       53 DC      0.0000
   1581 C6        -0.2868    -4.3350   140.8293 C.2       53 DC      0.0000
   1582 H5'       -2.7672    -7.6131   143.8295 H         53 DC      0.0000
   1583 H5''      -2.0734    -5.9677   143.7974 H         53 DC      0.0000
   1584 H4'       -4.3446    -6.6855   142.5118 H         53 DC      0.0000
   1585 H3'       -2.6459    -8.0379   140.9128 H         53 DC      0.0000
   1586 H2'       -2.3356    -6.1353   139.0081 H         53 DC      0.0000
   1587 H2''      -1.2005    -6.2696   140.3884 H         53 DC      0.0000
   1588 H1'       -3.4613    -4.3211   139.9597 H         53 DC      0.0000
   1589 H5         1.7762    -3.9080   140.9777 H         53 DC      0.0000
   1590 H6        -0.1271    -5.4030   140.8112 H         53 DC      0.0000
   1591 H41        1.3804    -0.2586   141.0707 H         53 DC      0.0000
   1592 H42        2.5045    -1.5986   141.1064 H         53 DC      0.0000
   1593 P         -4.5947    -7.2242   138.4373 P.3       52 DA      0.0000
   1594 OP1       -5.7816    -8.0786   138.0478 O.co2     52 DA      0.0000
   1595 OP2       -3.2930    -7.6661   137.8672 O.co2     52 DA      0.0000
   1596 O5'       -5.0095    -5.6915   138.2718 O.3       52 DA      0.0000
   1597 C5'       -6.3548    -5.2849   138.7372 C.3       52 DA      0.0000
   1598 C4'       -6.6340    -4.0764   137.8599 C.3       52 DA      0.0000
   1599 O4'       -5.6692    -3.0508   138.1273 O.3       52 DA      0.0000
   1600 C3'       -6.4861    -4.3656   136.3555 C.3       52 DA      0.0000
   1601 O3'       -7.1037    -3.3614   135.5665 O.3       52 DA      0.0000
   1602 C2'       -4.9723    -4.1550   136.1680 C.3       52 DA      0.0000
   1603 C1'       -4.9334    -2.7980   136.9227 C.3       52 DA      0.0000
   1604 N9        -3.5119    -2.5018   137.0681 N.ar      52 DA      0.0000
   1605 C8        -2.4877    -3.4194   137.1410 C.ar      52 DA      0.0000
   1606 N7        -1.3048    -2.8697   137.2556 N.ar      52 DA      0.0000
   1607 C5        -1.5803    -1.4906   137.2492 C.ar      52 DA      0.0000
   1608 C6        -0.7147    -0.3669   137.3492 C.ar      52 DA      0.0000
   1609 N6         0.6126    -0.4597   137.4720 N.pl3     52 DA      0.0000
   1610 N1        -1.3499     0.8379   137.3140 N.ar      52 DA      0.0000
   1611 C2        -2.6969     0.9326   137.1951 C.ar      52 DA      0.0000
   1612 N3        -3.5668    -0.0774   137.1037 N.ar      52 DA      0.0000
   1613 C4        -2.9287    -1.2605   137.1312 C.ar      52 DA      0.0000
   1614 H5'       -7.0879    -6.0741   138.5705 H         52 DA      0.0000
   1615 H5''      -6.3285    -4.9995   139.7888 H         52 DA      0.0000
   1616 H4'       -7.6361    -3.6991   138.0639 H         52 DA      0.0000
   1617 H3'       -6.8084    -5.3713   136.0859 H         52 DA      0.0000
   1618 H2'       -4.3724    -4.9271   136.6497 H         52 DA      0.0000
   1619 H2''      -4.7093    -4.0385   135.1167 H         52 DA      0.0000
   1620 H1'       -5.4240    -2.0227   136.3343 H         52 DA      0.0000
   1621 H8        -2.6448    -4.4874   137.1070 H         52 DA      0.0000
   1622 H2        -3.1106     1.9299   137.1719 H         52 DA      0.0000
   1623 H61        1.0552    -1.3672   137.4968 H         52 DA      0.0000
   1624 H62        1.1733     0.3776   137.5401 H         52 DA      0.0000
   1625 P         -8.1386    -3.7474   134.4256 P.3       51 DC      0.0000
   1626 OP1       -9.4333    -3.9036   135.2058 O.co2     51 DC      0.0000
   1627 OP2       -7.7536    -4.9632   133.6999 O.co2     51 DC      0.0000
   1628 O5'       -8.0190    -2.4292   133.4497 O.3       51 DC      0.0000
   1629 C5'       -8.1905    -1.1216   134.1187 C.3       51 DC      0.0000
   1630 C4'       -7.2586    -0.1294   133.4747 C.3       51 DC      0.0000
   1631 O4'       -5.9902    -0.0368   134.1118 O.3       51 DC      0.0000
   1632 C3'       -6.9738    -0.4477   131.9969 C.3       51 DC      0.0000
   1633 O3'       -6.7782     0.7039   131.1855 O.3       51 DC      0.0000
   1634 C2'       -5.6093    -1.1936   132.1625 C.3       51 DC      0.0000
   1635 C1'       -5.0045    -0.0504   133.0581 C.3       51 DC      0.0000
   1636 N1        -3.6254    -0.3877   133.2960 N.am      51 DC      0.0000
   1637 C2        -2.7415     0.6310   133.6131 C.2       51 DC      0.0000
   1638 O2        -2.9492     1.8415   133.7536 O.2       51 DC      0.0000
   1639 N3        -1.4290     0.3030   133.8113 N.2       51 DC      0.0000
   1640 C4        -0.9781    -0.9831   133.6954 C.2       51 DC      0.0000
   1641 N4         0.3175    -1.2588   133.9114 N.pl3     51 DC      0.0000
   1642 C5        -1.8968    -2.0176   133.3657 C.2       51 DC      0.0000
   1643 C6        -3.1752    -1.6718   133.1740 C.2       51 DC      0.0000
   1644 H5'       -9.2209    -0.7840   134.0072 H         51 DC      0.0000
   1645 H5''      -7.9489    -1.2173   135.1773 H         51 DC      0.0000
   1646 H4'       -7.7297     0.8524   133.5214 H         51 DC      0.0000
   1647 H3'       -7.7368    -1.1037   131.5778 H         51 DC      0.0000
   1648 H2'       -5.6973    -2.1491   132.6796 H         51 DC      0.0000
   1649 H2''      -5.0806    -1.2908   131.2143 H         51 DC      0.0000
   1650 H1'       -5.0521     0.8924   132.5132 H         51 DC      0.0000
   1651 H5        -1.5745    -3.0443   133.2736 H         51 DC      0.0000
   1652 H6        -3.8836    -2.4433   132.9108 H         51 DC      0.0000
   1653 H41        0.9586    -0.5164   134.1519 H         51 DC      0.0000
   1654 H42        0.6515    -2.2089   133.8335 H         51 DC      0.0000
   1655 P          8.8954     4.6101   167.7847 P.3       61 DG      0.0000
   1656 OP1       10.3790     4.5843   167.7832 O.co2     61 DG      0.0000
   1657 OP2        8.4357     3.5940   168.8404 O.co2     61 DG      0.0000
   1658 O5'        8.2015     6.0307   167.9631 O.3       61 DG      0.0000
   1659 C5'        7.5985     6.8791   166.9631 C.3       61 DG      0.0000
   1660 C4'        6.2309     7.2970   167.4619 C.3       61 DG      0.0000
   1661 O4'        5.2185     6.4076   167.0428 O.3       61 DG      0.0000
   1662 C3'        6.0486     7.4876   168.9541 C.3       61 DG      0.0000
   1663 O3'        5.5160     8.8031   169.2661 O.3       61 DG      0.0000
   1664 C2'        5.1333     6.3539   169.3760 C.3       61 DG      0.0000
   1665 C1'        4.3564     6.0400   168.1203 C.3       61 DG      0.0000
   1666 N9         3.9994     4.6100   168.0913 N.ar      61 DG      0.0000
   1667 C8         4.7902     3.5089   168.3202 C.ar      61 DG      0.0000
   1668 N7         4.1536     2.3630   168.2305 N.ar      61 DG      0.0000
   1669 C5         2.8491     2.7328   167.9135 C.ar      61 DG      0.0000
   1670 C6         1.6792     1.9664   167.6875 C.2       61 DG      0.0000
   1671 O6         1.5544     0.7415   167.7088 O.2       61 DG      0.0000
   1672 N1         0.5536     2.6911   167.4060 N.am      61 DG      0.0000
   1673 C2         0.5431     3.9842   167.3454 C.2       61 DG      0.0000
   1674 N2        -0.6239     4.4074   167.0486 N.pl3     61 DG      0.0000
   1675 N3         1.6407     4.8255   167.5541 N.2       61 DG      0.0000
   1676 C4         2.7401     4.1081   167.8267 C.ar      61 DG      0.0000
   1677 H5'        8.2189     7.7612   166.8044 H         61 DG      0.0000
   1678 H5''       7.4961     6.3289   166.0277 H         61 DG      0.0000
   1679 H4'        6.0115     8.2582   166.9972 H         61 DG      0.0000
   1680 H3'        7.0129     7.3684   169.4481 H         61 DG      0.0000
   1681 H2'        5.7104     5.4891   169.7030 H         61 DG      0.0000
   1682 H2''       4.4601     6.6831   170.1675 H         61 DG      0.0000
   1683 H1'        3.4504     6.6452   168.0884 H         61 DG      0.0000
   1684 H8         5.8425     3.5796   168.5532 H         61 DG      0.0000
   1685 H1        -0.3094     2.1941   167.2376 H         61 DG      0.0000
   1686 H21       -1.3776     3.7507   166.9042 H         61 DG      0.0000
   1687 H22       -0.7937     5.3989   166.9581 H         61 DG      0.0000
   1688 P          4.9603     9.1812   170.6946 P.3       62 DT      0.0000
   1689 OP1        5.3120    10.5542   171.2063 O.co2     62 DT      0.0000
   1690 OP2        5.7275     8.2130   171.6133 O.co2     62 DT      0.0000
   1691 O5'        3.4526     8.8220   170.7232 O.3       62 DT      0.0000
   1692 C5'        2.3972     9.8118   170.5792 C.3       62 DT      0.0000
   1693 C4'        1.1129     9.0115   170.6367 C.3       62 DT      0.0000
   1694 O4'        1.3241     7.6441   170.3616 O.3       62 DT      0.0000
   1695 C3'        0.3713     9.0269   171.9495 C.3       62 DT      0.0000
   1696 O3'       -0.8891     9.6870   171.7613 O.3       62 DT      0.0000
   1697 C2'        0.1850     7.5614   172.3417 C.3       62 DT      0.0000
   1698 C1'        0.2391     6.9004   170.9889 C.3       62 DT      0.0000
   1699 N1         0.6653     5.5041   171.0856 N.am      62 DT      0.0000
   1700 C2        -0.2853     4.5398   170.8877 C.2       62 DT      0.0000
   1701 O2        -1.4601     4.8103   170.6495 O.2       62 DT      0.0000
   1702 N3         0.1232     3.2357   170.9687 N.am      62 DT      0.0000
   1703 C4         1.4027     2.8809   171.2246 C.2       62 DT      0.0000
   1704 O4         1.6270     1.6430   171.2699 O.2       62 DT      0.0000
   1705 C5         2.3844     3.9040   171.4243 C.2       62 DT      0.0000
   1706 C7         3.8098     3.5542   171.7042 C.3       62 DT      0.0000
   1707 C6         1.9759     5.1767   171.3428 C.2       62 DT      0.0000
   1708 H5'        2.4357    10.5364   171.3927 H         62 DT      0.0000
   1709 H5''       2.4835    10.3186   169.6180 H         62 DT      0.0000
   1710 H4'        0.4425     9.4041   169.8722 H         62 DT      0.0000
   1711 H3'        0.9583     9.5468   172.7066 H         62 DT      0.0000
   1712 H2'        0.9892     7.2143   172.9905 H         62 DT      0.0000
   1713 H2''      -0.7864     7.4059   172.8109 H         62 DT      0.0000
   1714 H1'       -0.6988     7.0057   170.4436 H         62 DT      0.0000
   1715 H3        -0.5616     2.5062   170.8312 H         62 DT      0.0000
   1716 H6         2.6965     5.9689   171.4832 H         62 DT      0.0000
   1717 H71        4.4017     3.6874   170.7987 H         62 DT      0.0000
   1718 H72        3.8717     2.5156   172.0290 H         62 DT      0.0000
   1719 H73        4.1959     4.2042   172.4895 H         62 DT      0.0000
   1720 P         -1.3337    10.5871   173.0412 P.3       63 DG      0.0000
   1721 OP1       -1.9984    11.7565   172.3261 O.co2     63 DG      0.0000
   1722 OP2       -0.1474    10.9519   173.7947 O.co2     63 DG      0.0000
   1723 O5'       -2.3840     9.4963   173.6507 O.3       63 DG      0.0000
   1724 C5'       -3.2310     8.9705   172.5601 C.3       63 DG      0.0000
   1725 C4'       -3.9385     7.7539   173.0802 C.3       63 DG      0.0000
   1726 O4'       -3.2868     6.5251   172.8996 O.3       63 DG      0.0000
   1727 C3'       -4.2724     7.8627   174.5882 C.3       63 DG      0.0000
   1728 O3'       -5.6932     7.6319   174.7471 O.3       63 DG      0.0000
   1729 C2'       -3.3497     6.8555   175.2408 C.3       63 DG      0.0000
   1730 C1'       -3.2417     5.7869   174.1592 C.3       63 DG      0.0000
   1731 N9        -2.0309     4.9758   174.3288 N.ar      63 DG      0.0000
   1732 C8        -0.7691     5.3821   174.6650 C.ar      63 DG      0.0000
   1733 N7         0.1144     4.4121   174.7507 N.ar      63 DG      0.0000
   1734 C5        -0.6302     3.2820   174.4207 C.ar      63 DG      0.0000
   1735 C6        -0.2519     1.9121   174.3264 C.2       63 DG      0.0000
   1736 O6         0.8660     1.4111   174.5187 O.2       63 DG      0.0000
   1737 N1        -1.2794     1.0602   173.9913 N.am      63 DG      0.0000
   1738 C2        -2.5447     1.5104   173.7675 C.2       63 DG      0.0000
   1739 N2        -3.4153     0.5404   173.4587 N.pl3     63 DG      0.0000
   1740 N3        -2.9462     2.7775   173.8386 N.2       63 DG      0.0000
   1741 C4        -1.9440     3.6114   174.1652 C.ar      63 DG      0.0000
   1742 H5'       -3.9594     9.7237   172.2596 H         63 DG      0.0000
   1743 H5''      -2.6084     8.6989   171.7077 H         63 DG      0.0000
   1744 H4'       -4.8885     7.6893   172.5496 H         63 DG      0.0000
   1745 H3'       -4.0258     8.8634   174.9430 H         63 DG      0.0000
   1746 H2'       -2.3772     7.2943   175.4637 H         63 DG      0.0000
   1747 H2''      -3.8033     6.4456   176.1432 H         63 DG      0.0000
   1748 H1'       -4.1138     5.1358   174.2182 H         63 DG      0.0000
   1749 H8        -0.5183     6.4169   174.8456 H         63 DG      0.0000
   1750 H1        -1.0892     0.0717   173.9090 H         63 DG      0.0000
   1751 H21       -3.1051    -0.4195   173.4085 H         63 DG      0.0000
   1752 H22       -4.3821     0.7689   173.2761 H         63 DG      0.0000
   1753 P         -6.3961     7.7802   176.1355 P.3       64 DA      0.0000
   1754 OP1       -6.9079     9.1385   176.4908 O.co2     64 DA      0.0000
   1755 OP2       -5.1339     7.5000   177.0312 O.co2     64 DA      0.0000
   1756 O5'       -7.3280     6.5216   176.3846 O.3       64 DA      0.0000
   1757 C5'       -7.8714     5.6816   175.3556 C.3       64 DA      0.0000
   1758 C4'       -7.6278     4.2581   175.8299 C.3       64 DA      0.0000
   1759 O4'       -6.2560     3.9377   175.7395 O.3       64 DA      0.0000
   1760 C3'       -8.0657     3.9369   177.2589 C.3       64 DA      0.0000
   1761 O3'       -8.8118     2.7033   177.3112 O.3       64 DA      0.0000
   1762 C2'       -6.7224     3.8561   177.9944 C.3       64 DA      0.0000
   1763 C1'       -5.8972     3.1692   176.9168 C.3       64 DA      0.0000
   1764 N9        -4.4504     3.2397   177.1452 N.ar      64 DA      0.0000
   1765 C8        -3.6473     4.3234   177.3609 C.ar      64 DA      0.0000
   1766 N7        -2.3786     4.0220   177.5259 N.ar      64 DA      0.0000
   1767 C5        -2.3436     2.6426   177.3857 C.ar      64 DA      0.0000
   1768 C6        -1.2722     1.7241   177.4337 C.ar      64 DA      0.0000
   1769 N6         0.0011     2.0603   177.6534 N.pl3     64 DA      0.0000
   1770 N1        -1.6175     0.4160   177.2439 N.ar      64 DA      0.0000
   1771 C2        -2.9028     0.0532   177.0261 C.ar      64 DA      0.0000
   1772 N3        -3.9609     0.8609   176.9679 N.ar      64 DA      0.0000
   1773 C4        -3.6024     2.1442   177.1547 C.ar      64 DA      0.0000
   1774 H5'       -7.3625     5.8607   174.4084 H         64 DA      0.0000
   1775 H5''      -8.9407     5.8637   175.2478 H         64 DA      0.0000
   1776 H4'       -8.1684     3.5893   175.1601 H         64 DA      0.0000
   1777 H3'       -8.6643     4.7545   177.6604 H         64 DA      0.0000
   1778 H2'       -6.3317     4.8436   178.2399 H         64 DA      0.0000
   1779 H2''      -6.8002     3.2329   178.8853 H         64 DA      0.0000
   1780 H1'       -6.2122     2.1320   176.8023 H         64 DA      0.0000
   1781 H8        -4.0210     5.3362   177.3930 H         64 DA      0.0000
   1782 H2        -3.0905    -1.0010   176.8848 H         64 DA      0.0000
   1783 H61        0.3789     2.9919   177.5560 H         64 DA      0.0000
   1784 H62        0.7160     1.3677   177.4819 H         64 DA      0.0000
   1785 P         -9.9578     2.4170   178.4526 P.3       65 DA      0.0000
   1786 OP1      -11.2955     2.2144   177.7856 O.co2     65 DA      0.0000
   1787 OP2       -9.8421     3.6328   179.2836 O.co2     65 DA      0.0000
   1788 O5'       -9.5598     0.9662   178.9835 O.3       65 DA      0.0000
   1789 C5'       -9.5413    -0.1980   178.1592 C.3       65 DA      0.0000
   1790 C4'       -8.4612    -1.1290   178.6815 C.3       65 DA      0.0000
   1791 O4'       -7.2140    -0.4944   178.7096 O.3       65 DA      0.0000
   1792 C3'       -8.6771    -1.7542   180.0488 C.3       65 DA      0.0000
   1793 O3'       -8.7890    -3.1751   179.9710 O.3       65 DA      0.0000
   1794 C2'       -7.4944    -1.2378   180.8775 C.3       65 DA      0.0000
   1795 C1'       -6.4470    -0.9158   179.8837 C.3       65 DA      0.0000
   1796 N9        -5.4675     0.1528   180.1518 N.ar      65 DA      0.0000
   1797 C8        -5.6496     1.5096   180.2670 C.ar      65 DA      0.0000
   1798 N7        -4.5393     2.1878   180.4362 N.ar      65 DA      0.0000
   1799 C5        -3.5469     1.2136   180.3993 C.ar      65 DA      0.0000
   1800 C6        -2.1305     1.2986   180.5197 C.ar      65 DA      0.0000
   1801 N6        -1.4394     2.4153   180.7113 N.pl3     65 DA      0.0000
   1802 N1        -1.4546     0.1081   180.4215 N.ar      65 DA      0.0000
   1803 C2        -2.1315    -1.0617   180.2324 C.ar      65 DA      0.0000
   1804 N3        -3.4468    -1.2114   180.1246 N.ar      65 DA      0.0000
   1805 C4        -4.0970    -0.0339   180.2165 C.ar      65 DA      0.0000
   1806 H5'       -9.3208     0.0823   177.1291 H         65 DA      0.0000
   1807 H5''     -10.5097    -0.6963   178.2051 H         65 DA      0.0000
   1808 H4'       -8.3810    -1.9498   177.9688 H         65 DA      0.0000
   1809 H3'       -9.5990    -1.3553   180.4720 H         65 DA      0.0000
   1810 H2'       -7.7785    -0.3470   181.4378 H         65 DA      0.0000
   1811 H2''      -7.1431    -2.0142   181.5571 H         65 DA      0.0000
   1812 H1'       -5.9069    -1.8300   179.6377 H         65 DA      0.0000
   1813 H8        -6.6220     1.9773   180.2221 H         65 DA      0.0000
   1814 H2        -1.5354    -1.9596   180.1633 H         65 DA      0.0000
   1815 H61       -1.8721     3.2676   181.0375 H         65 DA      0.0000
   1816 H62       -0.4468     2.4127   180.5245 H         65 DA      0.0000
   1817 P         -9.7205    -4.1037   180.9272 P.3       66 DT      0.0000
   1818 OP1      -10.4305    -5.1920   180.1299 O.co2     66 DT      0.0000
   1819 OP2      -10.5877    -3.2845   181.7478 O.co2     66 DT      0.0000
   1820 O5'       -8.5892    -4.9772   181.7409 O.3       66 DT      0.0000
   1821 C5'       -7.5027    -5.3658   180.7958 C.3       66 DT      0.0000
   1822 C4'       -6.2332    -5.1637   181.5835 C.3       66 DT      0.0000
   1823 O4'       -5.8955    -3.8083   181.7755 O.3       66 DT      0.0000
   1824 C3'       -6.3260    -5.7603   183.0001 C.3       66 DT      0.0000
   1825 O3'       -5.7171    -7.0382   183.0018 O.3       66 DT      0.0000
   1826 C2'       -5.6505    -4.7262   183.8973 C.3       66 DT      0.0000
   1827 C1'       -4.9517    -3.8537   182.9327 C.3       66 DT      0.0000
   1828 N1        -4.6424    -2.4739   183.2725 N.am      66 DT      0.0000
   1829 C2        -3.2971    -2.1470   183.4104 C.2       66 DT      0.0000
   1830 O2        -2.4458    -3.0225   183.3224 O.2       66 DT      0.0000
   1831 N3        -2.9725    -0.8486   183.6644 N.am      66 DT      0.0000
   1832 C4        -3.9107     0.1363   183.7846 C.2       66 DT      0.0000
   1833 O4        -3.5283     1.3228   184.0397 O.2       66 DT      0.0000
   1834 C5        -5.2889    -0.2200   183.6130 C.2       66 DT      0.0000
   1835 C7        -6.3606     0.8310   183.7005 C.3       66 DT      0.0000
   1836 C6        -5.6034    -1.5016   183.3572 C.2       66 DT      0.0000
   1837 H5'       -7.6080    -6.4079   180.4941 H         66 DT      0.0000
   1838 H5''      -7.5123    -4.7159   179.9208 H         66 DT      0.0000
   1839 H4'       -5.4154    -5.6530   181.0544 H         66 DT      0.0000
   1840 H3'       -7.3738    -5.8576   183.2844 H         66 DT      0.0000
   1841 H2'       -6.3877    -4.1643   184.4708 H         66 DT      0.0000
   1842 H2''      -4.9352    -5.2082   184.5638 H         66 DT      0.0000
   1843 H1'       -4.0340    -4.3489   182.6154 H         66 DT      0.0000
   1844 H3        -1.9980    -0.6044   183.7681 H         66 DT      0.0000
   1845 H6        -6.6395    -1.7713   183.2151 H         66 DT      0.0000
   1846 H71       -5.9053     1.7981   183.9135 H         66 DT      0.0000
   1847 H72       -6.8965     0.8828   182.7527 H         66 DT      0.0000
   1848 H73       -7.0574     0.5738   184.4983 H         66 DT      0.0000
   1849 P         -5.7318    -8.1267   184.1084 P.3       67 DT      0.0000
   1850 OP1       -5.4488    -9.5230   183.4963 O.co2     67 DT      0.0000
   1851 OP2       -7.0757    -8.0626   184.7383 O.co2     67 DT      0.0000
   1852 O5'       -4.4282    -7.8198   184.9907 O.3       67 DT      0.0000
   1853 C5'       -3.1962    -8.1134   184.2789 C.3       67 DT      0.0000
   1854 C4'       -2.0738    -7.4055   184.9551 C.3       67 DT      0.0000
   1855 O4'       -2.1913    -5.9884   184.9318 O.3       67 DT      0.0000
   1856 C3'       -1.8621    -7.8078   186.4217 C.3       67 DT      0.0000
   1857 O3'       -0.4833    -7.9849   186.6858 O.3       67 DT      0.0000
   1858 C2'       -2.3787    -6.5489   187.1581 C.3       67 DT      0.0000
   1859 C1'       -1.7396    -5.5141   186.2545 C.3       67 DT      0.0000
   1860 N1        -2.2352    -4.1831   186.5522 N.am      67 DT      0.0000
   1861 C2        -1.3283    -3.1371   186.6070 C.2       67 DT      0.0000
   1862 O2        -0.1340    -3.3731   186.4186 O.2       67 DT      0.0000
   1863 N3        -1.8028    -1.8836   186.8729 N.am      67 DT      0.0000
   1864 C4        -3.1254    -1.6371   187.0800 C.2       67 DT      0.0000
   1865 O4        -3.4930    -0.4483   187.3033 O.2       67 DT      0.0000
   1866 C5        -4.0499    -2.7201   187.0149 C.2       67 DT      0.0000
   1867 C7        -5.5236    -2.5282   187.2248 C.3       67 DT      0.0000
   1868 C6        -3.5666    -3.9447   186.7538 C.2       67 DT      0.0000
   1869 H5'       -3.0126    -9.1877   184.2914 H         67 DT      0.0000
   1870 H5''      -3.2781    -7.7683   183.2482 H         67 DT      0.0000
   1871 H4'       -1.1613    -7.6615   184.4166 H         67 DT      0.0000
   1872 H3'       -2.4399    -8.6940   186.6842 H         67 DT      0.0000
   1873 H2'       -3.4668    -6.4850   187.1568 H         67 DT      0.0000
   1874 H2''      -1.9798    -6.4908   188.1708 H         67 DT      0.0000
   1875 H1'       -0.6528    -5.5502   186.3301 H         67 DT      0.0000
   1876 H3        -1.1502    -1.1140   186.9173 H         67 DT      0.0000
   1877 H6        -4.2561    -4.7742   186.7007 H         67 DT      0.0000
   1878 H71       -5.7288    -1.4763   187.4237 H         67 DT      0.0000
   1879 H72       -6.0614    -2.8401   186.3295 H         67 DT      0.0000
   1880 H73       -5.8510    -3.1290   188.0732 H         67 DT      0.0000
   1881 P          4.4046     7.3711   188.9695 P.3       67 DA      0.0000
   1882 OP1        5.7222     7.2906   189.7509 O.co2     67 DA      0.0000
   1883 OP2        4.5673     8.2055   187.7768 O.co2     67 DA      0.0000
   1884 O5'        3.9016     5.8315   188.7947 O.3       67 DA      0.0000
   1885 C5'        4.2887     4.9984   189.9512 C.3       67 DA      0.0000
   1886 C4'        5.2203     3.9355   189.4234 C.3       67 DA      0.0000
   1887 O4'        4.5680     2.7111   189.2011 O.3       67 DA      0.0000
   1888 C3'        5.8519     4.3091   188.0829 C.3       67 DA      0.0000
   1889 O3'        7.2114     3.9523   188.0077 O.3       67 DA      0.0000
   1890 C2'        4.8991     3.6736   187.0863 C.3       67 DA      0.0000
   1891 C1'        4.2140     2.5482   187.8102 C.3       67 DA      0.0000
   1892 N9         2.7586     2.5629   187.5846 N.ar      67 DA      0.0000
   1893 C8         1.9217     3.6419   187.3983 C.ar      67 DA      0.0000
   1894 N7         0.6629     3.3235   187.2024 N.ar      67 DA      0.0000
   1895 C5         0.6685     1.9369   187.2893 C.ar      67 DA      0.0000
   1896 C6        -0.3756     0.9886   187.1836 C.ar      67 DA      0.0000
   1897 N6        -1.6402     1.3076   186.9711 N.pl3     67 DA      0.0000
   1898 N1        -0.0124    -0.3179   187.3073 N.ar      67 DA      0.0000
   1899 C2         1.2861    -0.6767   187.5318 C.ar      67 DA      0.0000
   1900 N3         2.3123     0.1637   187.6477 N.ar      67 DA      0.0000
   1901 C4         1.9390     1.4591   187.5116 C.ar      67 DA      0.0000
   1902 H5'        4.7973     5.6065   190.6992 H         67 DA      0.0000
   1903 H5''       3.4044     4.5342   190.3879 H         67 DA      0.0000
   1904 H4'        6.0165     3.7783   190.1511 H         67 DA      0.0000
   1905 H3'        5.7825     5.3910   187.9698 H         67 DA      0.0000
   1906 H2'        5.4520     3.2888   186.2294 H         67 DA      0.0000
   1907 H2''       4.1630     4.4063   186.7558 H         67 DA      0.0000
   1908 H1'        4.6171     1.6010   187.4520 H         67 DA      0.0000
   1909 H8         2.2718     4.6635   187.4122 H         67 DA      0.0000
   1910 H2         1.4986    -1.7316   187.6231 H         67 DA      0.0000
   1911 H61       -2.3901     0.7090   187.2866 H         67 DA      0.0000
   1912 H62       -1.8607     2.1649   186.4849 H         67 DA      0.0000
   1913 P          8.0734     3.3603   186.8231 P.3       66 DA      0.0000
   1914 OP1        9.4632     2.8900   187.3430 O.co2     66 DA      0.0000
   1915 OP2        8.2684     4.5131   185.8894 O.co2     66 DA      0.0000
   1916 O5'        7.3490     2.0548   186.3204 O.3       66 DA      0.0000
   1917 C5'        7.7965     0.7613   186.7762 C.3       66 DA      0.0000
   1918 C4'        6.9443    -0.2735   186.0743 C.3       66 DA      0.0000
   1919 O4'        5.5954     0.0776   185.9536 O.3       66 DA      0.0000
   1920 C3'        7.4333    -0.6122   184.6668 C.3       66 DA      0.0000
   1921 O3'        7.8955    -1.9758   184.6353 O.3       66 DA      0.0000
   1922 C2'        6.2593    -0.2214   183.7672 C.3       66 DA      0.0000
   1923 C1'        5.0704    -0.3840   184.6650 C.3       66 DA      0.0000
   1924 N9         3.9098     0.4483   184.3654 N.ar      66 DA      0.0000
   1925 C8         3.8403     1.8123   184.1707 C.ar      66 DA      0.0000
   1926 N7         2.6207     2.2571   183.9652 N.ar      66 DA      0.0000
   1927 C5         1.8314     1.1260   184.0398 C.ar      66 DA      0.0000
   1928 C6         0.4375     0.9378   183.9063 C.ar      66 DA      0.0000
   1929 N6        -0.4227     1.9220   183.6631 N.pl3     66 DA      0.0000
   1930 N1         0.0058    -0.3558   184.0551 N.ar      66 DA      0.0000
   1931 C2         0.8528    -1.3722   184.3076 C.ar      66 DA      0.0000
   1932 N3         2.1781    -1.2700   184.4465 N.ar      66 DA      0.0000
   1933 C4         2.6003     0.0056   184.2993 C.ar      66 DA      0.0000
   1934 H5'        8.8463     0.6172   186.5211 H         66 DA      0.0000
   1935 H5''       7.6628     0.6817   187.8551 H         66 DA      0.0000
   1936 H4'        6.9912    -1.1887   186.6644 H         66 DA      0.0000
   1937 H3'        8.2750     0.0391   184.4318 H         66 DA      0.0000
   1938 H2'        6.3540     0.8099   183.4273 H         66 DA      0.0000
   1939 H2''       6.1895    -0.8985   182.9159 H         66 DA      0.0000
   1940 H1'        4.7805    -1.4330   184.7261 H         66 DA      0.0000
   1941 H8         4.7080     2.4552   184.1856 H         66 DA      0.0000
   1942 H2         0.4225    -2.3579   184.4067 H         66 DA      0.0000
   1943 H61       -1.3730     1.7471   183.9571 H         66 DA      0.0000
   1944 H62       -0.1453     2.7841   183.2158 H         66 DA      0.0000
   1945 P          8.4526    -2.5787   183.2504 P.3       65 DT      0.0000
   1946 OP1        9.2121    -3.8683   183.3085 O.co2     65 DT      0.0000
   1947 OP2        9.2223    -1.4042   182.7377 O.co2     65 DT      0.0000
   1948 O5'        6.9837    -2.9333   182.5472 O.3       65 DT      0.0000
   1949 C5'        6.1022    -3.5067   183.5595 C.3       65 DT      0.0000
   1950 C4'        5.0382    -4.3051   182.8766 C.3       65 DT      0.0000
   1951 O4'        3.8438    -3.6047   182.6962 O.3       65 DT      0.0000
   1952 C3'        5.4447    -4.8481   181.5153 C.3       65 DT      0.0000
   1953 O3'        4.9154    -6.1525   181.2481 O.3       65 DT      0.0000
   1954 C2'        4.8984    -3.7267   180.6220 C.3       65 DT      0.0000
   1955 C1'        3.5543    -3.4524   181.2620 C.3       65 DT      0.0000
   1956 N1         3.1265    -2.0596   181.0321 N.am      65 DT      0.0000
   1957 C2         1.7691    -1.8198   180.9104 C.2       65 DT      0.0000
   1958 O2         0.9534    -2.7425   180.9472 O.2       65 DT      0.0000
   1959 N3         1.3583    -0.5252   180.7430 N.am      65 DT      0.0000
   1960 C4         2.2405     0.5087   180.6945 C.2       65 DT      0.0000
   1961 O4         1.7733     1.6720   180.5090 O.2       65 DT      0.0000
   1962 C5         3.6305     0.2428   180.8429 C.2       65 DT      0.0000
   1963 C7         4.6391     1.3656   180.7908 C.3       65 DT      0.0000
   1964 C6         4.0152    -1.0261   181.0159 C.2       65 DT      0.0000
   1965 H5'        6.6774    -4.1540   184.2216 H         65 DT      0.0000
   1966 H5''       5.6427    -2.7064   184.1396 H         65 DT      0.0000
   1967 H4'        4.8177    -5.1617   183.5136 H         65 DT      0.0000
   1968 H3'        6.5320    -4.8742   181.4433 H         65 DT      0.0000
   1969 H2'        5.5401    -2.8462   180.6526 H         65 DT      0.0000
   1970 H2''       4.7731    -4.0768   179.5974 H         65 DT      0.0000
   1971 H1'        2.7990    -4.1639   180.9281 H         65 DT      0.0000
   1972 H3         0.3710    -0.3320   180.6529 H         65 DT      0.0000
   1973 H6         5.0657    -1.2394   181.1473 H         65 DT      0.0000
   1974 H71        5.0548     1.4349   179.7856 H         65 DT      0.0000
   1975 H72        5.4406     1.1670   181.5024 H         65 DT      0.0000
   1976 H73        4.1501     2.3054   181.0473 H         65 DT      0.0000
   1977 P          5.2269    -6.7505   179.7581 P.3       64 DT      0.0000
   1978 OP1        6.1445    -7.9656   179.9061 O.co2     64 DT      0.0000
   1979 OP2        5.9730    -5.6324   179.0883 O.co2     64 DT      0.0000
   1980 O5'        3.8692    -7.1167   179.1061 O.3       64 DT      0.0000
   1981 C5'        2.7272    -7.5281   179.8575 C.3       64 DT      0.0000
   1982 C4'        1.5003    -7.1149   179.1095 C.3       64 DT      0.0000
   1983 O4'        1.1798    -5.7512   179.0525 O.3       64 DT      0.0000
   1984 C3'        1.3689    -7.5814   177.6435 C.3       64 DT      0.0000
   1985 O3'       -0.0426    -7.7913   177.5397 O.3       64 DT      0.0000
   1986 C2'        1.8232    -6.3305   176.8797 C.3       64 DT      0.0000
   1987 C1'        0.9942    -5.3274   177.6554 C.3       64 DT      0.0000
   1988 N1         1.4186    -3.9285   177.5493 N.am      64 DT      0.0000
   1989 C2         0.3826    -2.9849   177.5486 C.2       64 DT      0.0000
   1990 O2        -0.7982    -3.3364   177.5917 O.2       64 DT      0.0000
   1991 N3         0.7415    -1.6687   177.4952 N.am      64 DT      0.0000
   1992 C4         2.0406    -1.2599   177.4354 C.2       64 DT      0.0000
   1993 O4         2.2708    -0.0147   177.3730 O.2       64 DT      0.0000
   1994 C5         3.0719    -2.2383   177.4437 C.2       64 DT      0.0000
   1995 C7         4.5197    -1.7982   177.3823 C.3       64 DT      0.0000
   1996 C6         2.7162    -3.5246   177.5102 C.2       64 DT      0.0000
   1997 H5'        2.7370    -8.6112   179.9797 H         64 DT      0.0000
   1998 H5''       2.7394    -7.0483   180.8361 H         64 DT      0.0000
   1999 H4'        0.6698    -7.5843   179.6368 H         64 DT      0.0000
   2000 H3'        1.9589    -8.4690   177.4147 H         64 DT      0.0000
   2001 H2'        1.5537    -6.3661   175.8241 H         64 DT      0.0000
   2002 H2''       2.8901    -6.1504   177.0113 H         64 DT      0.0000
   2003 H1'       -0.0555    -5.4187   177.3764 H         64 DT      0.0000
   2004 H3         0.0138    -0.9684   177.5001 H         64 DT      0.0000
   2005 H6         3.4924    -4.2751   177.5339 H         64 DT      0.0000
   2006 H71        4.5676    -0.7103   177.3334 H         64 DT      0.0000
   2007 H72        4.9908    -2.2225   176.4957 H         64 DT      0.0000
   2008 H73        5.0430    -2.1452   178.2732 H         64 DT      0.0000
   2009 P         -0.7936    -8.5211   176.3935 P.3       63 DC      0.0000
   2010 OP1       -1.7649    -9.5339   177.0026 O.co2     63 DC      0.0000
   2011 OP2        0.2593    -9.2419   175.6116 O.co2     63 DC      0.0000
   2012 O5'       -1.5300    -7.2701   175.6541 O.3       63 DC      0.0000
   2013 C5'       -2.6748    -6.7116   176.3786 C.3       63 DC      0.0000
   2014 C4'       -3.6551    -6.2583   175.3280 C.3       63 DC      0.0000
   2015 O4'       -3.5721    -4.8737   175.0828 O.3       63 DC      0.0000
   2016 C3'       -3.5077    -6.9338   173.9636 C.3       63 DC      0.0000
   2017 O3'       -4.7347    -7.1188   173.2543 O.3       63 DC      0.0000
   2018 C2'       -2.5224    -5.9776   173.2775 C.3       63 DC      0.0000
   2019 C1'       -2.9498    -4.6168   173.8241 C.3       63 DC      0.0000
   2020 N1        -1.7385    -3.7714   173.9419 N.am      63 DC      0.0000
   2021 C2        -1.9290    -2.3904   173.9591 C.2       63 DC      0.0000
   2022 O2        -3.0642    -1.8996   173.8905 O.2       63 DC      0.0000
   2023 N3        -0.8125    -1.6054   174.0624 N.2       63 DC      0.0000
   2024 C4         0.4375    -2.1331   174.1331 C.2       63 DC      0.0000
   2025 N4         1.4956    -1.3257   174.2351 N.pl3     63 DC      0.0000
   2026 C5         0.6040    -3.5459   174.1080 C.2       63 DC      0.0000
   2027 C6        -0.4933    -4.3164   174.0144 C.2       63 DC      0.0000
   2028 H5'       -3.1272    -7.4724   177.0145 H         63 DC      0.0000
   2029 H5''      -2.3557    -5.8620   176.9825 H         63 DC      0.0000
   2030 H4'       -4.6586    -6.4706   175.6968 H         63 DC      0.0000
   2031 H3'       -3.0264    -7.9025   174.0978 H         63 DC      0.0000
   2032 H2'       -2.6256    -6.0169   172.1931 H         63 DC      0.0000
   2033 H2''      -1.4983    -6.2052   173.5735 H         63 DC      0.0000
   2034 H1'       -3.6636    -4.1510   173.1447 H         63 DC      0.0000
   2035 H5         1.5877    -3.9883   174.1628 H         63 DC      0.0000
   2036 H6        -0.3848    -5.3908   173.9963 H         63 DC      0.0000
   2037 H41        1.3665    -0.3242   174.2557 H         63 DC      0.0000
   2038 H42        2.4253    -1.7163   174.2914 H         63 DC      0.0000
   2039 P         -4.9342    -6.9967   171.6223 P.3       62 DA      0.0000
   2040 OP1       -6.1605    -7.7936   171.2329 O.co2     62 DA      0.0000
   2041 OP2       -3.6550    -7.5002   171.0523 O.co2     62 DA      0.0000
   2042 O5'       -5.2754    -5.4460   171.4568 O.3       62 DA      0.0000
   2043 C5'       -6.5997    -4.9757   171.9222 C.3       62 DA      0.0000
   2044 C4'       -6.8210    -3.7552   171.0450 C.3       62 DA      0.0000
   2045 O4'       -5.8083    -2.7768   171.3123 O.3       62 DA      0.0000
   2046 C3'       -6.6870    -4.0512   169.5406 C.3       62 DA      0.0000
   2047 O3'       -7.2560    -3.0186   168.7515 O.3       62 DA      0.0000
   2048 C2'       -5.1649    -3.9131   169.3531 C.3       62 DA      0.0000
   2049 C1'       -5.0613    -2.5595   170.1077 C.3       62 DA      0.0000
   2050 N9        -3.6272    -2.3314   170.2532 N.ar      62 DA      0.0000
   2051 C8        -2.6480    -3.2968   170.3260 C.ar      62 DA      0.0000
   2052 N7        -1.4402    -2.8042   170.4407 N.ar      62 DA      0.0000
   2053 C5        -1.6496    -1.4135   170.4343 C.ar      62 DA      0.0000
   2054 C6        -0.7314    -0.3324   170.5342 C.ar      62 DA      0.0000
   2055 N6         0.5900    -0.4884   170.6571 N.pl3     62 DA      0.0000
   2056 N1        -1.3084     0.9013   170.4991 N.ar      62 DA      0.0000
   2057 C2        -2.6493     1.0602   170.3802 C.ar      62 DA      0.0000
   2058 N3        -3.5664     0.0928   170.2887 N.ar      62 DA      0.0000
   2059 C4        -2.9855    -1.1193   170.3163 C.ar      62 DA      0.0000
   2060 H5'       -7.3696    -5.7290   171.7555 H         62 DA      0.0000
   2061 H5''      -6.5599    -4.6919   172.9739 H         62 DA      0.0000
   2062 H4'       -7.8039    -3.3306   171.2489 H         62 DA      0.0000
   2063 H3'       -7.0569    -5.0404   169.2709 H         62 DA      0.0000
   2064 H2'       -4.6025    -4.7129   169.8347 H         62 DA      0.0000
   2065 H2''      -4.8967    -3.8092   168.3017 H         62 DA      0.0000
   2066 H1'       -5.5143    -1.7617   169.5193 H         62 DA      0.0000
   2067 H8        -2.8559    -4.3561   170.2920 H         62 DA      0.0000
   2068 H2        -3.0150     2.0761   170.3570 H         62 DA      0.0000
   2069 H61        0.9887    -1.4160   170.6818 H         62 DA      0.0000
   2070 H62        1.1899     0.3212   170.7252 H         62 DA      0.0000
   2071 P         -8.3081    -3.3549   167.6106 P.3       61 DC      0.0000
   2072 OP1       -9.6088    -3.4491   168.3909 O.co2     61 DC      0.0000
   2073 OP2       -7.9815    -4.5876   166.8850 O.co2     61 DC      0.0000
   2074 O5'       -8.1258    -2.0438   166.6347 O.3       61 DC      0.0000
   2075 C5'       -8.2347    -0.7296   167.3037 C.3       61 DC      0.0000
   2076 C4'       -7.2565     0.2170   166.6597 C.3       61 DC      0.0000
   2077 O4'       -5.9852     0.2490   167.2968 O.3       61 DC      0.0000
   2078 C3'       -6.9873    -0.1144   165.1819 C.3       61 DC      0.0000
   2079 O3'       -6.7369     1.0264   164.3706 O.3       61 DC      0.0000
   2080 C2'       -5.6599    -0.9246   165.3475 C.3       61 DC      0.0000
   2081 C1'       -5.0012     0.1884   166.2431 C.3       61 DC      0.0000
   2082 N1        -3.6397    -0.2143   166.4810 N.am      61 DC      0.0000
   2083 C2        -2.7083     0.7611   166.7982 C.2       61 DC      0.0000
   2084 O2        -2.8579     1.9801   166.9386 O.2       61 DC      0.0000
   2085 N3        -1.4129     0.3708   166.9964 N.2       61 DC      0.0000
   2086 C4        -1.0239    -0.9353   166.8804 C.2       61 DC      0.0000
   2087 N4         0.2571    -1.2726   167.0965 N.pl3     61 DC      0.0000
   2088 C5        -1.9909    -1.9248   166.5508 C.2       61 DC      0.0000
   2089 C6        -3.2513    -1.5184   166.3591 C.2       61 DC      0.0000
   2090 H5'       -9.2478    -0.3432   167.1923 H         61 DC      0.0000
   2091 H5''      -7.9980    -0.8367   168.3623 H         61 DC      0.0000
   2092 H4'       -7.6802     1.2202   166.7064 H         61 DC      0.0000
   2093 H3'       -7.7806    -0.7333   164.7629 H         61 DC      0.0000
   2094 H2'       -5.7934    -1.8748   165.8646 H         61 DC      0.0000
   2095 H2''      -5.1364    -1.0470   164.3993 H         61 DC      0.0000
   2096 H1'       -5.0038     1.1325   165.6982 H         61 DC      0.0000
   2097 H5        -1.7180    -2.9657   166.4586 H         61 DC      0.0000
   2098 H6        -3.9958    -2.2553   166.0958 H         61 DC      0.0000
   2099 H41        0.9329    -0.5615   167.3370 H         61 DC      0.0000
   2100 H42        0.5454    -2.2374   167.0185 H         61 DC      0.0000
@<TRIPOS>BOND
     1      9     33 1
     2     41     65 1
     3     73     97 1
     4    105    127 1
     5    135    159 1
     6    197    222 1
     7    230    254 1
     8    262    287 1
     9    295    319 1
    10    327    351 1
    11      1      2 1
    12      1      3 1
    13      1      4 1
    14      4      5 1
    15      5      6 1
    16      6      7 1
    17      6      8 1
    18      7     11 1
    19      8      9 1
    20      8     10 1
    21     10     11 1
    22     11     12 1
    23     12     13 ar
    24     12     21 ar
    25     13     14 ar
    26     14     15 ar
    27     15     16 ar
    28     15     21 ar
    29     16     17 1
    30     16     18 ar
    31     18     19 ar
    32     19     20 ar
    33     20     21 ar
    34     33     34 1
    35     33     35 1
    36     33     36 1
    37     36     37 1
    38     37     38 1
    39     38     39 1
    40     38     40 1
    41     39     43 1
    42     40     41 1
    43     40     42 1
    44     42     43 1
    45     43     44 1
    46     44     45 am
    47     44     52 1
    48     45     46 2
    49     45     47 am
    50     47     48 am
    51     48     49 2
    52     48     50 1
    53     50     51 1
    54     50     52 2
    55     65     66 1
    56     65     67 1
    57     65     68 1
    58     68     69 1
    59     69     70 1
    60     70     71 1
    61     70     72 1
    62     71     75 1
    63     72     73 1
    64     72     74 1
    65     74     75 1
    66     75     76 1
    67     76     77 am
    68     76     84 1
    69     77     78 2
    70     77     79 am
    71     79     80 am
    72     80     81 2
    73     80     82 1
    74     82     83 1
    75     82     84 2
    76     97     98 1
    77     97     99 1
    78     97    100 1
    79    100    101 1
    80    101    102 1
    81    102    103 1
    82    102    104 1
    83    103    107 1
    84    104    105 1
    85    104    106 1
    86    106    107 1
    87    107    108 1
    88    108    109 am
    89    108    115 1
    90    109    110 2
    91    109    111 1
    92    111    112 2
    93    112    113 2
    94    112    114 2
    95    114    115 2
    96    127    128 1
    97    127    129 1
    98    127    130 1
    99    130    131 1
   100    131    132 1
   101    132    133 1
   102    132    134 1
   103    133    137 1
   104    134    135 1
   105    134    136 1
   106    136    137 1
   107    137    138 1
   108    138    139 ar
   109    138    147 ar
   110    139    140 ar
   111    140    141 ar
   112    141    142 ar
   113    141    147 ar
   114    142    143 1
   115    142    144 ar
   116    144    145 ar
   117    145    146 ar
   118    146    147 ar
   119    159    160 1
   120    159    161 1
   121    159    162 1
   122    162    163 1
   123    163    164 1
   124    164    165 1
   125    164    166 1
   126    165    169 1
   127    166    167 1
   128    166    168 1
   129    168    169 1
   130    169    170 1
   131    170    171 am
   132    170    177 1
   133    171    172 2
   134    171    173 1
   135    173    174 2
   136    174    175 2
   137    174    176 2
   138    176    177 2
   139    189    190 1
   140    189    191 1
   141    189    192 1
   142    192    193 1
   143    193    194 1
   144    194    195 1
   145    194    196 1
   146    195    199 1
   147    196    197 1
   148    196    198 1
   149    198    199 1
   150    199    200 1
   151    200    201 ar
   152    200    210 ar
   153    201    202 ar
   154    202    203 ar
   155    203    204 1
   156    203    210 ar
   157    204    205 2
   158    204    206 am
   159    206    207 1
   160    207    208 2
   161    207    209 2
   162    209    210 1
   163    222    223 1
   164    222    224 1
   165    222    225 1
   166    225    226 1
   167    226    227 1
   168    227    228 1
   169    227    229 1
   170    228    232 1
   171    229    230 1
   172    229    231 1
   173    231    232 1
   174    232    233 1
   175    233    234 am
   176    233    241 1
   177    234    235 2
   178    234    236 am
   179    236    237 am
   180    237    238 2
   181    237    239 1
   182    239    240 1
   183    239    241 2
   184    254    255 1
   185    254    256 1
   186    254    257 1
   187    257    258 1
   188    258    259 1
   189    259    260 1
   190    259    261 1
   191    260    264 1
   192    261    262 1
   193    261    263 1
   194    263    264 1
   195    264    265 1
   196    265    266 ar
   197    265    275 ar
   198    266    267 ar
   199    267    268 ar
   200    268    269 1
   201    268    275 ar
   202    269    270 2
   203    269    271 am
   204    271    272 1
   205    272    273 2
   206    272    274 2
   207    274    275 1
   208    287    288 1
   209    287    289 1
   210    287    290 1
   211    290    291 1
   212    291    292 1
   213    292    293 1
   214    292    294 1
   215    293    297 1
   216    294    295 1
   217    294    296 1
   218    296    297 1
   219    297    298 1
   220    298    299 ar
   221    298    307 ar
   222    299    300 ar
   223    300    301 ar
   224    301    302 ar
   225    301    307 ar
   226    302    303 1
   227    302    304 ar
   228    304    305 ar
   229    305    306 ar
   230    306    307 ar
   231    319    320 1
   232    319    321 1
   233    319    322 1
   234    322    323 1
   235    323    324 1
   236    324    325 1
   237    324    326 1
   238    325    329 1
   239    326    327 1
   240    326    328 1
   241    328    329 1
   242    329    330 1
   243    330    331 ar
   244    330    339 ar
   245    331    332 ar
   246    332    333 ar
   247    333    334 ar
   248    333    339 ar
   249    334    335 1
   250    334    336 ar
   251    336    337 ar
   252    337    338 ar
   253    338    339 ar
   254    351    352 1
   255    351    353 1
   256    351    354 1
   257    354    355 1
   258    355    356 1
   259    356    357 1
   260    356    358 1
   261    357    361 1
   262    358    359 1
   263    358    360 1
   264    360    361 1
   265    361    362 1
   266    362    363 am
   267    362    370 1
   268    363    364 2
   269    363    365 am
   270    365    366 am
   271    366    367 2
   272    366    368 1
   273    368    369 1
   274    368    370 2
   275     22      5 1
   276     23      5 1
   277     24      6 1
   278     25      8 1
   279     26     10 1
   280     27     10 1
   281     28     11 1
   282     29     13 1
   283     30     19 1
   284     53     37 1
   285     54     37 1
   286     55     38 1
   287     56     40 1
   288     57     42 1
   289     58     42 1
   290     59     43 1
   291     60     47 1
   292     61     52 1
   293     85     69 1
   294     86     69 1
   295     87     70 1
   296     88     72 1
   297     89     74 1
   298     90     74 1
   299     91     75 1
   300     92     79 1
   301     93     84 1
   302    116    101 1
   303    117    101 1
   304    118    102 1
   305    119    104 1
   306    120    106 1
   307    121    106 1
   308    122    107 1
   309    123    114 1
   310    124    115 1
   311    148    131 1
   312    149    131 1
   313    150    132 1
   314    151    134 1
   315    152    136 1
   316    153    136 1
   317    154    137 1
   318    155    139 1
   319    156    145 1
   320    178    163 1
   321    179    163 1
   322    180    164 1
   323    181    166 1
   324    182    168 1
   325    183    168 1
   326    184    169 1
   327    185    176 1
   328    186    177 1
   329    211    193 1
   330    212    193 1
   331    213    194 1
   332    214    196 1
   333    215    198 1
   334    216    198 1
   335    217    199 1
   336    218    201 1
   337    219    206 1
   338    242    226 1
   339    243    226 1
   340    244    227 1
   341    245    229 1
   342    246    231 1
   343    247    231 1
   344    248    232 1
   345    249    236 1
   346    250    241 1
   347    276    258 1
   348    277    258 1
   349    278    259 1
   350    279    261 1
   351    280    263 1
   352    281    263 1
   353    282    264 1
   354    283    266 1
   355    284    271 1
   356    308    291 1
   357    309    291 1
   358    310    292 1
   359    311    294 1
   360    312    296 1
   361    313    296 1
   362    314    297 1
   363    315    299 1
   364    316    305 1
   365    340    323 1
   366    341    323 1
   367    342    324 1
   368    343    326 1
   369    344    328 1
   370    345    328 1
   371    346    329 1
   372    347    331 1
   373    348    337 1
   374    371    355 1
   375    372    355 1
   376    373    356 1
   377    374    358 1
   378    375    360 1
   379    376    360 1
   380    377    361 1
   381    378    365 1
   382    379    370 1
   383    125    113 1
   384    126    113 1
   385    187    175 1
   386    188    175 1
   387    220    208 1
   388    221    208 1
   389    285    273 1
   390    286    273 1
   391     31     17 1
   392     32     17 1
   393    157    143 1
   394    158    143 1
   395    317    303 1
   396    318    303 1
   397    349    335 1
   398    350    335 1
   399     62     51 1
   400     63     51 1
   401     64     51 1
   402     94     83 1
   403     95     83 1
   404     96     83 1
   405    251    240 1
   406    252    240 1
   407    253    240 1
   408    380    369 1
   409    381    369 1
   410    382    369 1
   411    167    383 1
   412    189    997 1
   413    391    416 1
   414    424    448 1
   415    456    481 1
   416    489    513 1
   417    521    545 1
   418    553    577 1
   419    585    609 1
   420    617    639 1
   421    647    671 1
   422    709    734 1
   423    742    766 1
   424    774    799 1
   425    807    831 1
   426    839    863 1
   427    871    895 1
   428    903    927 1
   429    935    957 1
   430    965    989 1
   431    383    384 1
   432    383    385 1
   433    383    386 1
   434    386    387 1
   435    387    388 1
   436    388    389 1
   437    388    390 1
   438    389    393 1
   439    390    391 1
   440    390    392 1
   441    392    393 1
   442    393    394 1
   443    394    395 ar
   444    394    404 ar
   445    395    396 ar
   446    396    397 ar
   447    397    398 1
   448    397    404 ar
   449    398    399 2
   450    398    400 am
   451    400    401 1
   452    401    402 2
   453    401    403 2
   454    403    404 1
   455    416    417 1
   456    416    418 1
   457    416    419 1
   458    419    420 1
   459    420    421 1
   460    421    422 1
   461    421    423 1
   462    422    426 1
   463    423    424 1
   464    423    425 1
   465    425    426 1
   466    426    427 1
   467    427    428 am
   468    427    435 1
   469    428    429 2
   470    428    430 am
   471    430    431 am
   472    431    432 2
   473    431    433 1
   474    433    434 1
   475    433    435 2
   476    448    449 1
   477    448    450 1
   478    448    451 1
   479    451    452 1
   480    452    453 1
   481    453    454 1
   482    453    455 1
   483    454    458 1
   484    455    456 1
   485    455    457 1
   486    457    458 1
   487    458    459 1
   488    459    460 ar
   489    459    469 ar
   490    460    461 ar
   491    461    462 ar
   492    462    463 1
   493    462    469 ar
   494    463    464 2
   495    463    465 am
   496    465    466 1
   497    466    467 2
   498    466    468 2
   499    468    469 1
   500    481    482 1
   501    481    483 1
   502    481    484 1
   503    484    485 1
   504    485    486 1
   505    486    487 1
   506    486    488 1
   507    487    491 1
   508    488    489 1
   509    488    490 1
   510    490    491 1
   511    491    492 1
   512    492    493 ar
   513    492    501 ar
   514    493    494 ar
   515    494    495 ar
   516    495    496 ar
   517    495    501 ar
   518    496    497 1
   519    496    498 ar
   520    498    499 ar
   521    499    500 ar
   522    500    501 ar
   523    513    514 1
   524    513    515 1
   525    513    516 1
   526    516    517 1
   527    517    518 1
   528    518    519 1
   529    518    520 1
   530    519    523 1
   531    520    521 1
   532    520    522 1
   533    522    523 1
   534    523    524 1
   535    524    525 ar
   536    524    533 ar
   537    525    526 ar
   538    526    527 ar
   539    527    528 ar
   540    527    533 ar
   541    528    529 1
   542    528    530 ar
   543    530    531 ar
   544    531    532 ar
   545    532    533 ar
   546    545    546 1
   547    545    547 1
   548    545    548 1
   549    548    549 1
   550    549    550 1
   551    550    551 1
   552    550    552 1
   553    551    555 1
   554    552    553 1
   555    552    554 1
   556    554    555 1
   557    555    556 1
   558    556    557 am
   559    556    564 1
   560    557    558 2
   561    557    559 am
   562    559    560 am
   563    560    561 2
   564    560    562 1
   565    562    563 1
   566    562    564 2
   567    577    578 1
   568    577    579 1
   569    577    580 1
   570    580    581 1
   571    581    582 1
   572    582    583 1
   573    582    584 1
   574    583    587 1
   575    584    585 1
   576    584    586 1
   577    586    587 1
   578    587    588 1
   579    588    589 am
   580    588    596 1
   581    589    590 2
   582    589    591 am
   583    591    592 am
   584    592    593 2
   585    592    594 1
   586    594    595 1
   587    594    596 2
   588    609    610 1
   589    609    611 1
   590    609    612 1
   591    612    613 1
   592    613    614 1
   593    614    615 1
   594    614    616 1
   595    615    619 1
   596    616    617 1
   597    616    618 1
   598    618    619 1
   599    619    620 1
   600    620    621 am
   601    620    627 1
   602    621    622 2
   603    621    623 1
   604    623    624 2
   605    624    625 2
   606    624    626 2
   607    626    627 2
   608    639    640 1
   609    639    641 1
   610    639    642 1
   611    642    643 1
   612    643    644 1
   613    644    645 1
   614    644    646 1
   615    645    649 1
   616    646    647 1
   617    646    648 1
   618    648    649 1
   619    649    650 1
   620    650    651 ar
   621    650    659 ar
   622    651    652 ar
   623    652    653 ar
   624    653    654 ar
   625    653    659 ar
   626    654    655 1
   627    654    656 ar
   628    656    657 ar
   629    657    658 ar
   630    658    659 ar
   631    671    672 1
   632    671    673 1
   633    671    674 1
   634    674    675 1
   635    675    676 1
   636    676    677 1
   637    676    678 1
   638    677    681 1
   639    678    679 1
   640    678    680 1
   641    680    681 1
   642    681    682 1
   643    682    683 am
   644    682    689 1
   645    683    684 2
   646    683    685 1
   647    685    686 2
   648    686    687 2
   649    686    688 2
   650    688    689 2
   651    701    702 1
   652    701    703 1
   653    701    704 1
   654    704    705 1
   655    705    706 1
   656    706    707 1
   657    706    708 1
   658    707    711 1
   659    708    709 1
   660    708    710 1
   661    710    711 1
   662    711    712 1
   663    712    713 ar
   664    712    722 ar
   665    713    714 ar
   666    714    715 ar
   667    715    716 1
   668    715    722 ar
   669    716    717 2
   670    716    718 am
   671    718    719 1
   672    719    720 2
   673    719    721 2
   674    721    722 1
   675    734    735 1
   676    734    736 1
   677    734    737 1
   678    737    738 1
   679    738    739 1
   680    739    740 1
   681    739    741 1
   682    740    744 1
   683    741    742 1
   684    741    743 1
   685    743    744 1
   686    744    745 1
   687    745    746 am
   688    745    753 1
   689    746    747 2
   690    746    748 am
   691    748    749 am
   692    749    750 2
   693    749    751 1
   694    751    752 1
   695    751    753 2
   696    766    767 1
   697    766    768 1
   698    766    769 1
   699    769    770 1
   700    770    771 1
   701    771    772 1
   702    771    773 1
   703    772    776 1
   704    773    774 1
   705    773    775 1
   706    775    776 1
   707    776    777 1
   708    777    778 ar
   709    777    787 ar
   710    778    779 ar
   711    779    780 ar
   712    780    781 1
   713    780    787 ar
   714    781    782 2
   715    781    783 am
   716    783    784 1
   717    784    785 2
   718    784    786 2
   719    786    787 1
   720    799    800 1
   721    799    801 1
   722    799    802 1
   723    802    803 1
   724    803    804 1
   725    804    805 1
   726    804    806 1
   727    805    809 1
   728    806    807 1
   729    806    808 1
   730    808    809 1
   731    809    810 1
   732    810    811 ar
   733    810    819 ar
   734    811    812 ar
   735    812    813 ar
   736    813    814 ar
   737    813    819 ar
   738    814    815 1
   739    814    816 ar
   740    816    817 ar
   741    817    818 ar
   742    818    819 ar
   743    831    832 1
   744    831    833 1
   745    831    834 1
   746    834    835 1
   747    835    836 1
   748    836    837 1
   749    836    838 1
   750    837    841 1
   751    838    839 1
   752    838    840 1
   753    840    841 1
   754    841    842 1
   755    842    843 ar
   756    842    851 ar
   757    843    844 ar
   758    844    845 ar
   759    845    846 ar
   760    845    851 ar
   761    846    847 1
   762    846    848 ar
   763    848    849 ar
   764    849    850 ar
   765    850    851 ar
   766    863    864 1
   767    863    865 1
   768    863    866 1
   769    866    867 1
   770    867    868 1
   771    868    869 1
   772    868    870 1
   773    869    873 1
   774    870    871 1
   775    870    872 1
   776    872    873 1
   777    873    874 1
   778    874    875 am
   779    874    882 1
   780    875    876 2
   781    875    877 am
   782    877    878 am
   783    878    879 2
   784    878    880 1
   785    880    881 1
   786    880    882 2
   787    895    896 1
   788    895    897 1
   789    895    898 1
   790    898    899 1
   791    899    900 1
   792    900    901 1
   793    900    902 1
   794    901    905 1
   795    902    903 1
   796    902    904 1
   797    904    905 1
   798    905    906 1
   799    906    907 am
   800    906    914 1
   801    907    908 2
   802    907    909 am
   803    909    910 am
   804    910    911 2
   805    910    912 1
   806    912    913 1
   807    912    914 2
   808    927    928 1
   809    927    929 1
   810    927    930 1
   811    930    931 1
   812    931    932 1
   813    932    933 1
   814    932    934 1
   815    933    937 1
   816    934    935 1
   817    934    936 1
   818    936    937 1
   819    937    938 1
   820    938    939 am
   821    938    945 1
   822    939    940 2
   823    939    941 1
   824    941    942 2
   825    942    943 2
   826    942    944 2
   827    944    945 2
   828    957    958 1
   829    957    959 1
   830    957    960 1
   831    960    961 1
   832    961    962 1
   833    962    963 1
   834    962    964 1
   835    963    967 1
   836    964    965 1
   837    964    966 1
   838    966    967 1
   839    967    968 1
   840    968    969 ar
   841    968    977 ar
   842    969    970 ar
   843    970    971 ar
   844    971    972 ar
   845    971    977 ar
   846    972    973 1
   847    972    974 ar
   848    974    975 ar
   849    975    976 ar
   850    976    977 ar
   851    989    990 1
   852    989    991 1
   853    989    992 1
   854    992    993 1
   855    993    994 1
   856    994    995 1
   857    994    996 1
   858    995    999 1
   859    996    997 1
   860    996    998 1
   861    998    999 1
   862    999   1000 1
   863   1000   1001 am
   864   1000   1007 1
   865   1001   1002 2
   866   1001   1003 1
   867   1003   1004 2
   868   1004   1005 2
   869   1004   1006 2
   870   1006   1007 2
   871    405    387 1
   872    406    387 1
   873    407    388 1
   874    408    390 1
   875    409    392 1
   876    410    392 1
   877    411    393 1
   878    412    395 1
   879    413    400 1
   880    436    420 1
   881    437    420 1
   882    438    421 1
   883    439    423 1
   884    440    425 1
   885    441    425 1
   886    442    426 1
   887    443    430 1
   888    444    435 1
   889    470    452 1
   890    471    452 1
   891    472    453 1
   892    473    455 1
   893    474    457 1
   894    475    457 1
   895    476    458 1
   896    477    460 1
   897    478    465 1
   898    502    485 1
   899    503    485 1
   900    504    486 1
   901    505    488 1
   902    506    490 1
   903    507    490 1
   904    508    491 1
   905    509    493 1
   906    510    499 1
   907    534    517 1
   908    535    517 1
   909    536    518 1
   910    537    520 1
   911    538    522 1
   912    539    522 1
   913    540    523 1
   914    541    525 1
   915    542    531 1
   916    565    549 1
   917    566    549 1
   918    567    550 1
   919    568    552 1
   920    569    554 1
   921    570    554 1
   922    571    555 1
   923    572    559 1
   924    573    564 1
   925    597    581 1
   926    598    581 1
   927    599    582 1
   928    600    584 1
   929    601    586 1
   930    602    586 1
   931    603    587 1
   932    604    591 1
   933    605    596 1
   934    628    613 1
   935    629    613 1
   936    630    614 1
   937    631    616 1
   938    632    618 1
   939    633    618 1
   940    634    619 1
   941    635    626 1
   942    636    627 1
   943    660    643 1
   944    661    643 1
   945    662    644 1
   946    663    646 1
   947    664    648 1
   948    665    648 1
   949    666    649 1
   950    667    651 1
   951    668    657 1
   952    690    675 1
   953    691    675 1
   954    692    676 1
   955    693    678 1
   956    694    680 1
   957    695    680 1
   958    696    681 1
   959    697    688 1
   960    698    689 1
   961    723    705 1
   962    724    705 1
   963    725    706 1
   964    726    708 1
   965    727    710 1
   966    728    710 1
   967    729    711 1
   968    730    713 1
   969    731    718 1
   970    754    738 1
   971    755    738 1
   972    756    739 1
   973    757    741 1
   974    758    743 1
   975    759    743 1
   976    760    744 1
   977    761    748 1
   978    762    753 1
   979    788    770 1
   980    789    770 1
   981    790    771 1
   982    791    773 1
   983    792    775 1
   984    793    775 1
   985    794    776 1
   986    795    778 1
   987    796    783 1
   988    820    803 1
   989    821    803 1
   990    822    804 1
   991    823    806 1
   992    824    808 1
   993    825    808 1
   994    826    809 1
   995    827    811 1
   996    828    817 1
   997    852    835 1
   998    853    835 1
   999    854    836 1
  1000    855    838 1
  1001    856    840 1
  1002    857    840 1
  1003    858    841 1
  1004    859    843 1
  1005    860    849 1
  1006    883    867 1
  1007    884    867 1
  1008    885    868 1
  1009    886    870 1
  1010    887    872 1
  1011    888    872 1
  1012    889    873 1
  1013    890    877 1
  1014    891    882 1
  1015    915    899 1
  1016    916    899 1
  1017    917    900 1
  1018    918    902 1
  1019    919    904 1
  1020    920    904 1
  1021    921    905 1
  1022    922    909 1
  1023    923    914 1
  1024    946    931 1
  1025    947    931 1
  1026    948    932 1
  1027    949    934 1
  1028    950    936 1
  1029    951    936 1
  1030    952    937 1
  1031    953    944 1
  1032    954    945 1
  1033    978    961 1
  1034    979    961 1
  1035    980    962 1
  1036    981    964 1
  1037    982    966 1
  1038    983    966 1
  1039    984    967 1
  1040    985    969 1
  1041    986    975 1
  1042   1008    993 1
  1043   1009    993 1
  1044   1010    994 1
  1045   1011    996 1
  1046   1012    998 1
  1047   1013    998 1
  1048   1014    999 1
  1049   1015   1006 1
  1050   1016   1007 1
  1051    414    402 1
  1052    415    402 1
  1053    479    467 1
  1054    480    467 1
  1055    637    625 1
  1056    638    625 1
  1057    699    687 1
  1058    700    687 1
  1059    732    720 1
  1060    733    720 1
  1061    797    785 1
  1062    798    785 1
  1063    955    943 1
  1064    956    943 1
  1065   1017   1005 1
  1066   1018   1005 1
  1067    511    497 1
  1068    512    497 1
  1069    543    529 1
  1070    544    529 1
  1071    669    655 1
  1072    670    655 1
  1073    829    815 1
  1074    830    815 1
  1075    861    847 1
  1076    862    847 1
  1077    987    973 1
  1078    988    973 1
  1079    445    434 1
  1080    446    434 1
  1081    447    434 1
  1082    574    563 1
  1083    575    563 1
  1084    576    563 1
  1085    606    595 1
  1086    607    595 1
  1087    608    595 1
  1088    763    752 1
  1089    764    752 1
  1090    765    752 1
  1091    892    881 1
  1092    893    881 1
  1093    894    881 1
  1094    924    913 1
  1095    925    913 1
  1096    926    913 1
  1097    679   1019 1
  1098    701   1633 1
  1099   1027   1052 1
  1100   1060   1084 1
  1101   1092   1117 1
  1102   1125   1149 1
  1103   1157   1181 1
  1104   1189   1213 1
  1105   1221   1245 1
  1106   1253   1275 1
  1107   1283   1307 1
  1108   1345   1370 1
  1109   1378   1402 1
  1110   1410   1435 1
  1111   1443   1467 1
  1112   1475   1499 1
  1113   1507   1531 1
  1114   1539   1563 1
  1115   1571   1593 1
  1116   1601   1625 1
  1117   1019   1020 1
  1118   1019   1021 1
  1119   1019   1022 1
  1120   1022   1023 1
  1121   1023   1024 1
  1122   1024   1025 1
  1123   1024   1026 1
  1124   1025   1029 1
  1125   1026   1027 1
  1126   1026   1028 1
  1127   1028   1029 1
  1128   1029   1030 1
  1129   1030   1031 ar
  1130   1030   1040 ar
  1131   1031   1032 ar
  1132   1032   1033 ar
  1133   1033   1034 1
  1134   1033   1040 ar
  1135   1034   1035 2
  1136   1034   1036 am
  1137   1036   1037 1
  1138   1037   1038 2
  1139   1037   1039 2
  1140   1039   1040 1
  1141   1052   1053 1
  1142   1052   1054 1
  1143   1052   1055 1
  1144   1055   1056 1
  1145   1056   1057 1
  1146   1057   1058 1
  1147   1057   1059 1
  1148   1058   1062 1
  1149   1059   1060 1
  1150   1059   1061 1
  1151   1061   1062 1
  1152   1062   1063 1
  1153   1063   1064 am
  1154   1063   1071 1
  1155   1064   1065 2
  1156   1064   1066 am
  1157   1066   1067 am
  1158   1067   1068 2
  1159   1067   1069 1
  1160   1069   1070 1
  1161   1069   1071 2
  1162   1084   1085 1
  1163   1084   1086 1
  1164   1084   1087 1
  1165   1087   1088 1
  1166   1088   1089 1
  1167   1089   1090 1
  1168   1089   1091 1
  1169   1090   1094 1
  1170   1091   1092 1
  1171   1091   1093 1
  1172   1093   1094 1
  1173   1094   1095 1
  1174   1095   1096 ar
  1175   1095   1105 ar
  1176   1096   1097 ar
  1177   1097   1098 ar
  1178   1098   1099 1
  1179   1098   1105 ar
  1180   1099   1100 2
  1181   1099   1101 am
  1182   1101   1102 1
  1183   1102   1103 2
  1184   1102   1104 2
  1185   1104   1105 1
  1186   1117   1118 1
  1187   1117   1119 1
  1188   1117   1120 1
  1189   1120   1121 1
  1190   1121   1122 1
  1191   1122   1123 1
  1192   1122   1124 1
  1193   1123   1127 1
  1194   1124   1125 1
  1195   1124   1126 1
  1196   1126   1127 1
  1197   1127   1128 1
  1198   1128   1129 ar
  1199   1128   1137 ar
  1200   1129   1130 ar
  1201   1130   1131 ar
  1202   1131   1132 ar
  1203   1131   1137 ar
  1204   1132   1133 1
  1205   1132   1134 ar
  1206   1134   1135 ar
  1207   1135   1136 ar
  1208   1136   1137 ar
  1209   1149   1150 1
  1210   1149   1151 1
  1211   1149   1152 1
  1212   1152   1153 1
  1213   1153   1154 1
  1214   1154   1155 1
  1215   1154   1156 1
  1216   1155   1159 1
  1217   1156   1157 1
  1218   1156   1158 1
  1219   1158   1159 1
  1220   1159   1160 1
  1221   1160   1161 ar
  1222   1160   1169 ar
  1223   1161   1162 ar
  1224   1162   1163 ar
  1225   1163   1164 ar
  1226   1163   1169 ar
  1227   1164   1165 1
  1228   1164   1166 ar
  1229   1166   1167 ar
  1230   1167   1168 ar
  1231   1168   1169 ar
  1232   1181   1182 1
  1233   1181   1183 1
  1234   1181   1184 1
  1235   1184   1185 1
  1236   1185   1186 1
  1237   1186   1187 1
  1238   1186   1188 1
  1239   1187   1191 1
  1240   1188   1189 1
  1241   1188   1190 1
  1242   1190   1191 1
  1243   1191   1192 1
  1244   1192   1193 am
  1245   1192   1200 1
  1246   1193   1194 2
  1247   1193   1195 am
  1248   1195   1196 am
  1249   1196   1197 2
  1250   1196   1198 1
  1251   1198   1199 1
  1252   1198   1200 2
  1253   1213   1214 1
  1254   1213   1215 1
  1255   1213   1216 1
  1256   1216   1217 1
  1257   1217   1218 1
  1258   1218   1219 1
  1259   1218   1220 1
  1260   1219   1223 1
  1261   1220   1221 1
  1262   1220   1222 1
  1263   1222   1223 1
  1264   1223   1224 1
  1265   1224   1225 am
  1266   1224   1232 1
  1267   1225   1226 2
  1268   1225   1227 am
  1269   1227   1228 am
  1270   1228   1229 2
  1271   1228   1230 1
  1272   1230   1231 1
  1273   1230   1232 2
  1274   1245   1246 1
  1275   1245   1247 1
  1276   1245   1248 1
  1277   1248   1249 1
  1278   1249   1250 1
  1279   1250   1251 1
  1280   1250   1252 1
  1281   1251   1255 1
  1282   1252   1253 1
  1283   1252   1254 1
  1284   1254   1255 1
  1285   1255   1256 1
  1286   1256   1257 am
  1287   1256   1263 1
  1288   1257   1258 2
  1289   1257   1259 1
  1290   1259   1260 2
  1291   1260   1261 2
  1292   1260   1262 2
  1293   1262   1263 2
  1294   1275   1276 1
  1295   1275   1277 1
  1296   1275   1278 1
  1297   1278   1279 1
  1298   1279   1280 1
  1299   1280   1281 1
  1300   1280   1282 1
  1301   1281   1285 1
  1302   1282   1283 1
  1303   1282   1284 1
  1304   1284   1285 1
  1305   1285   1286 1
  1306   1286   1287 ar
  1307   1286   1295 ar
  1308   1287   1288 ar
  1309   1288   1289 ar
  1310   1289   1290 ar
  1311   1289   1295 ar
  1312   1290   1291 1
  1313   1290   1292 ar
  1314   1292   1293 ar
  1315   1293   1294 ar
  1316   1294   1295 ar
  1317   1307   1308 1
  1318   1307   1309 1
  1319   1307   1310 1
  1320   1310   1311 1
  1321   1311   1312 1
  1322   1312   1313 1
  1323   1312   1314 1
  1324   1313   1317 1
  1325   1314   1315 1
  1326   1314   1316 1
  1327   1316   1317 1
  1328   1317   1318 1
  1329   1318   1319 am
  1330   1318   1325 1
  1331   1319   1320 2
  1332   1319   1321 1
  1333   1321   1322 2
  1334   1322   1323 2
  1335   1322   1324 2
  1336   1324   1325 2
  1337   1337   1338 1
  1338   1337   1339 1
  1339   1337   1340 1
  1340   1340   1341 1
  1341   1341   1342 1
  1342   1342   1343 1
  1343   1342   1344 1
  1344   1343   1347 1
  1345   1344   1345 1
  1346   1344   1346 1
  1347   1346   1347 1
  1348   1347   1348 1
  1349   1348   1349 ar
  1350   1348   1358 ar
  1351   1349   1350 ar
  1352   1350   1351 ar
  1353   1351   1352 1
  1354   1351   1358 ar
  1355   1352   1353 2
  1356   1352   1354 am
  1357   1354   1355 1
  1358   1355   1356 2
  1359   1355   1357 2
  1360   1357   1358 1
  1361   1370   1371 1
  1362   1370   1372 1
  1363   1370   1373 1
  1364   1373   1374 1
  1365   1374   1375 1
  1366   1375   1376 1
  1367   1375   1377 1
  1368   1376   1380 1
  1369   1377   1378 1
  1370   1377   1379 1
  1371   1379   1380 1
  1372   1380   1381 1
  1373   1381   1382 am
  1374   1381   1389 1
  1375   1382   1383 2
  1376   1382   1384 am
  1377   1384   1385 am
  1378   1385   1386 2
  1379   1385   1387 1
  1380   1387   1388 1
  1381   1387   1389 2
  1382   1402   1403 1
  1383   1402   1404 1
  1384   1402   1405 1
  1385   1405   1406 1
  1386   1406   1407 1
  1387   1407   1408 1
  1388   1407   1409 1
  1389   1408   1412 1
  1390   1409   1410 1
  1391   1409   1411 1
  1392   1411   1412 1
  1393   1412   1413 1
  1394   1413   1414 ar
  1395   1413   1423 ar
  1396   1414   1415 ar
  1397   1415   1416 ar
  1398   1416   1417 1
  1399   1416   1423 ar
  1400   1417   1418 2
  1401   1417   1419 am
  1402   1419   1420 1
  1403   1420   1421 2
  1404   1420   1422 2
  1405   1422   1423 1
  1406   1435   1436 1
  1407   1435   1437 1
  1408   1435   1438 1
  1409   1438   1439 1
  1410   1439   1440 1
  1411   1440   1441 1
  1412   1440   1442 1
  1413   1441   1445 1
  1414   1442   1443 1
  1415   1442   1444 1
  1416   1444   1445 1
  1417   1445   1446 1
  1418   1446   1447 ar
  1419   1446   1455 ar
  1420   1447   1448 ar
  1421   1448   1449 ar
  1422   1449   1450 ar
  1423   1449   1455 ar
  1424   1450   1451 1
  1425   1450   1452 ar
  1426   1452   1453 ar
  1427   1453   1454 ar
  1428   1454   1455 ar
  1429   1467   1468 1
  1430   1467   1469 1
  1431   1467   1470 1
  1432   1470   1471 1
  1433   1471   1472 1
  1434   1472   1473 1
  1435   1472   1474 1
  1436   1473   1477 1
  1437   1474   1475 1
  1438   1474   1476 1
  1439   1476   1477 1
  1440   1477   1478 1
  1441   1478   1479 ar
  1442   1478   1487 ar
  1443   1479   1480 ar
  1444   1480   1481 ar
  1445   1481   1482 ar
  1446   1481   1487 ar
  1447   1482   1483 1
  1448   1482   1484 ar
  1449   1484   1485 ar
  1450   1485   1486 ar
  1451   1486   1487 ar
  1452   1499   1500 1
  1453   1499   1501 1
  1454   1499   1502 1
  1455   1502   1503 1
  1456   1503   1504 1
  1457   1504   1505 1
  1458   1504   1506 1
  1459   1505   1509 1
  1460   1506   1507 1
  1461   1506   1508 1
  1462   1508   1509 1
  1463   1509   1510 1
  1464   1510   1511 am
  1465   1510   1518 1
  1466   1511   1512 2
  1467   1511   1513 am
  1468   1513   1514 am
  1469   1514   1515 2
  1470   1514   1516 1
  1471   1516   1517 1
  1472   1516   1518 2
  1473   1531   1532 1
  1474   1531   1533 1
  1475   1531   1534 1
  1476   1534   1535 1
  1477   1535   1536 1
  1478   1536   1537 1
  1479   1536   1538 1
  1480   1537   1541 1
  1481   1538   1539 1
  1482   1538   1540 1
  1483   1540   1541 1
  1484   1541   1542 1
  1485   1542   1543 am
  1486   1542   1550 1
  1487   1543   1544 2
  1488   1543   1545 am
  1489   1545   1546 am
  1490   1546   1547 2
  1491   1546   1548 1
  1492   1548   1549 1
  1493   1548   1550 2
  1494   1563   1564 1
  1495   1563   1565 1
  1496   1563   1566 1
  1497   1566   1567 1
  1498   1567   1568 1
  1499   1568   1569 1
  1500   1568   1570 1
  1501   1569   1573 1
  1502   1570   1571 1
  1503   1570   1572 1
  1504   1572   1573 1
  1505   1573   1574 1
  1506   1574   1575 am
  1507   1574   1581 1
  1508   1575   1576 2
  1509   1575   1577 1
  1510   1577   1578 2
  1511   1578   1579 2
  1512   1578   1580 2
  1513   1580   1581 2
  1514   1593   1594 1
  1515   1593   1595 1
  1516   1593   1596 1
  1517   1596   1597 1
  1518   1597   1598 1
  1519   1598   1599 1
  1520   1598   1600 1
  1521   1599   1603 1
  1522   1600   1601 1
  1523   1600   1602 1
  1524   1602   1603 1
  1525   1603   1604 1
  1526   1604   1605 ar
  1527   1604   1613 ar
  1528   1605   1606 ar
  1529   1606   1607 ar
  1530   1607   1608 ar
  1531   1607   1613 ar
  1532   1608   1609 1
  1533   1608   1610 ar
  1534   1610   1611 ar
  1535   1611   1612 ar
  1536   1612   1613 ar
  1537   1625   1626 1
  1538   1625   1627 1
  1539   1625   1628 1
  1540   1628   1629 1
  1541   1629   1630 1
  1542   1630   1631 1
  1543   1630   1632 1
  1544   1631   1635 1
  1545   1632   1633 1
  1546   1632   1634 1
  1547   1634   1635 1
  1548   1635   1636 1
  1549   1636   1637 am
  1550   1636   1643 1
  1551   1637   1638 2
  1552   1637   1639 1
  1553   1639   1640 2
  1554   1640   1641 2
  1555   1640   1642 2
  1556   1642   1643 2
  1557   1041   1023 1
  1558   1042   1023 1
  1559   1043   1024 1
  1560   1044   1026 1
  1561   1045   1028 1
  1562   1046   1028 1
  1563   1047   1029 1
  1564   1048   1031 1
  1565   1049   1036 1
  1566   1072   1056 1
  1567   1073   1056 1
  1568   1074   1057 1
  1569   1075   1059 1
  1570   1076   1061 1
  1571   1077   1061 1
  1572   1078   1062 1
  1573   1079   1066 1
  1574   1080   1071 1
  1575   1106   1088 1
  1576   1107   1088 1
  1577   1108   1089 1
  1578   1109   1091 1
  1579   1110   1093 1
  1580   1111   1093 1
  1581   1112   1094 1
  1582   1113   1096 1
  1583   1114   1101 1
  1584   1138   1121 1
  1585   1139   1121 1
  1586   1140   1122 1
  1587   1141   1124 1
  1588   1142   1126 1
  1589   1143   1126 1
  1590   1144   1127 1
  1591   1145   1129 1
  1592   1146   1135 1
  1593   1170   1153 1
  1594   1171   1153 1
  1595   1172   1154 1
  1596   1173   1156 1
  1597   1174   1158 1
  1598   1175   1158 1
  1599   1176   1159 1
  1600   1177   1161 1
  1601   1178   1167 1
  1602   1201   1185 1
  1603   1202   1185 1
  1604   1203   1186 1
  1605   1204   1188 1
  1606   1205   1190 1
  1607   1206   1190 1
  1608   1207   1191 1
  1609   1208   1195 1
  1610   1209   1200 1
  1611   1233   1217 1
  1612   1234   1217 1
  1613   1235   1218 1
  1614   1236   1220 1
  1615   1237   1222 1
  1616   1238   1222 1
  1617   1239   1223 1
  1618   1240   1227 1
  1619   1241   1232 1
  1620   1264   1249 1
  1621   1265   1249 1
  1622   1266   1250 1
  1623   1267   1252 1
  1624   1268   1254 1
  1625   1269   1254 1
  1626   1270   1255 1
  1627   1271   1262 1
  1628   1272   1263 1
  1629   1296   1279 1
  1630   1297   1279 1
  1631   1298   1280 1
  1632   1299   1282 1
  1633   1300   1284 1
  1634   1301   1284 1
  1635   1302   1285 1
  1636   1303   1287 1
  1637   1304   1293 1
  1638   1326   1311 1
  1639   1327   1311 1
  1640   1328   1312 1
  1641   1329   1314 1
  1642   1330   1316 1
  1643   1331   1316 1
  1644   1332   1317 1
  1645   1333   1324 1
  1646   1334   1325 1
  1647   1359   1341 1
  1648   1360   1341 1
  1649   1361   1342 1
  1650   1362   1344 1
  1651   1363   1346 1
  1652   1364   1346 1
  1653   1365   1347 1
  1654   1366   1349 1
  1655   1367   1354 1
  1656   1390   1374 1
  1657   1391   1374 1
  1658   1392   1375 1
  1659   1393   1377 1
  1660   1394   1379 1
  1661   1395   1379 1
  1662   1396   1380 1
  1663   1397   1384 1
  1664   1398   1389 1
  1665   1424   1406 1
  1666   1425   1406 1
  1667   1426   1407 1
  1668   1427   1409 1
  1669   1428   1411 1
  1670   1429   1411 1
  1671   1430   1412 1
  1672   1431   1414 1
  1673   1432   1419 1
  1674   1456   1439 1
  1675   1457   1439 1
  1676   1458   1440 1
  1677   1459   1442 1
  1678   1460   1444 1
  1679   1461   1444 1
  1680   1462   1445 1
  1681   1463   1447 1
  1682   1464   1453 1
  1683   1488   1471 1
  1684   1489   1471 1
  1685   1490   1472 1
  1686   1491   1474 1
  1687   1492   1476 1
  1688   1493   1476 1
  1689   1494   1477 1
  1690   1495   1479 1
  1691   1496   1485 1
  1692   1519   1503 1
  1693   1520   1503 1
  1694   1521   1504 1
  1695   1522   1506 1
  1696   1523   1508 1
  1697   1524   1508 1
  1698   1525   1509 1
  1699   1526   1513 1
  1700   1527   1518 1
  1701   1551   1535 1
  1702   1552   1535 1
  1703   1553   1536 1
  1704   1554   1538 1
  1705   1555   1540 1
  1706   1556   1540 1
  1707   1557   1541 1
  1708   1558   1545 1
  1709   1559   1550 1
  1710   1582   1567 1
  1711   1583   1567 1
  1712   1584   1568 1
  1713   1585   1570 1
  1714   1586   1572 1
  1715   1587   1572 1
  1716   1588   1573 1
  1717   1589   1580 1
  1718   1590   1581 1
  1719   1614   1597 1
  1720   1615   1597 1
  1721   1616   1598 1
  1722   1617   1600 1
  1723   1618   1602 1
  1724   1619   1602 1
  1725   1620   1603 1
  1726   1621   1605 1
  1727   1622   1611 1
  1728   1644   1629 1
  1729   1645   1629 1
  1730   1646   1630 1
  1731   1647   1632 1
  1732   1648   1634 1
  1733   1649   1634 1
  1734   1650   1635 1
  1735   1651   1642 1
  1736   1652   1643 1
  1737   1050   1038 1
  1738   1051   1038 1
  1739   1115   1103 1
  1740   1116   1103 1
  1741   1273   1261 1
  1742   1274   1261 1
  1743   1335   1323 1
  1744   1336   1323 1
  1745   1368   1356 1
  1746   1369   1356 1
  1747   1433   1421 1
  1748   1434   1421 1
  1749   1591   1579 1
  1750   1592   1579 1
  1751   1653   1641 1
  1752   1654   1641 1
  1753   1147   1133 1
  1754   1148   1133 1
  1755   1179   1165 1
  1756   1180   1165 1
  1757   1305   1291 1
  1758   1306   1291 1
  1759   1465   1451 1
  1760   1466   1451 1
  1761   1497   1483 1
  1762   1498   1483 1
  1763   1623   1609 1
  1764   1624   1609 1
  1765   1081   1070 1
  1766   1082   1070 1
  1767   1083   1070 1
  1768   1210   1199 1
  1769   1211   1199 1
  1770   1212   1199 1
  1771   1242   1231 1
  1772   1243   1231 1
  1773   1244   1231 1
  1774   1399   1388 1
  1775   1400   1388 1
  1776   1401   1388 1
  1777   1528   1517 1
  1778   1529   1517 1
  1779   1530   1517 1
  1780   1560   1549 1
  1781   1561   1549 1
  1782   1562   1549 1
  1783   1315   1655 1
  1784   1337   2079 1
  1785   1663   1688 1
  1786   1696   1720 1
  1787   1728   1753 1
  1788   1761   1785 1
  1789   1793   1817 1
  1790   1825   1849 1
  1791   1889   1913 1
  1792   1921   1945 1
  1793   1953   1977 1
  1794   1985   2009 1
  1795   2017   2039 1
  1796   2047   2071 1
  1797   1655   1656 1
  1798   1655   1657 1
  1799   1655   1658 1
  1800   1658   1659 1
  1801   1659   1660 1
  1802   1660   1661 1
  1803   1660   1662 1
  1804   1661   1665 1
  1805   1662   1663 1
  1806   1662   1664 1
  1807   1664   1665 1
  1808   1665   1666 1
  1809   1666   1667 ar
  1810   1666   1676 ar
  1811   1667   1668 ar
  1812   1668   1669 ar
  1813   1669   1670 1
  1814   1669   1676 ar
  1815   1670   1671 2
  1816   1670   1672 am
  1817   1672   1673 1
  1818   1673   1674 2
  1819   1673   1675 2
  1820   1675   1676 1
  1821   1688   1689 1
  1822   1688   1690 1
  1823   1688   1691 1
  1824   1691   1692 1
  1825   1692   1693 1
  1826   1693   1694 1
  1827   1693   1695 1
  1828   1694   1698 1
  1829   1695   1696 1
  1830   1695   1697 1
  1831   1697   1698 1
  1832   1698   1699 1
  1833   1699   1700 am
  1834   1699   1707 1
  1835   1700   1701 2
  1836   1700   1702 am
  1837   1702   1703 am
  1838   1703   1704 2
  1839   1703   1705 1
  1840   1705   1706 1
  1841   1705   1707 2
  1842   1720   1721 1
  1843   1720   1722 1
  1844   1720   1723 1
  1845   1723   1724 1
  1846   1724   1725 1
  1847   1725   1726 1
  1848   1725   1727 1
  1849   1726   1730 1
  1850   1727   1728 1
  1851   1727   1729 1
  1852   1729   1730 1
  1853   1730   1731 1
  1854   1731   1732 ar
  1855   1731   1741 ar
  1856   1732   1733 ar
  1857   1733   1734 ar
  1858   1734   1735 1
  1859   1734   1741 ar
  1860   1735   1736 2
  1861   1735   1737 am
  1862   1737   1738 1
  1863   1738   1739 2
  1864   1738   1740 2
  1865   1740   1741 1
  1866   1753   1754 1
  1867   1753   1755 1
  1868   1753   1756 1
  1869   1756   1757 1
  1870   1757   1758 1
  1871   1758   1759 1
  1872   1758   1760 1
  1873   1759   1763 1
  1874   1760   1761 1
  1875   1760   1762 1
  1876   1762   1763 1
  1877   1763   1764 1
  1878   1764   1765 ar
  1879   1764   1773 ar
  1880   1765   1766 ar
  1881   1766   1767 ar
  1882   1767   1768 ar
  1883   1767   1773 ar
  1884   1768   1769 1
  1885   1768   1770 ar
  1886   1770   1771 ar
  1887   1771   1772 ar
  1888   1772   1773 ar
  1889   1785   1786 1
  1890   1785   1787 1
  1891   1785   1788 1
  1892   1788   1789 1
  1893   1789   1790 1
  1894   1790   1791 1
  1895   1790   1792 1
  1896   1791   1795 1
  1897   1792   1793 1
  1898   1792   1794 1
  1899   1794   1795 1
  1900   1795   1796 1
  1901   1796   1797 ar
  1902   1796   1805 ar
  1903   1797   1798 ar
  1904   1798   1799 ar
  1905   1799   1800 ar
  1906   1799   1805 ar
  1907   1800   1801 1
  1908   1800   1802 ar
  1909   1802   1803 ar
  1910   1803   1804 ar
  1911   1804   1805 ar
  1912   1817   1818 1
  1913   1817   1819 1
  1914   1817   1820 1
  1915   1820   1821 1
  1916   1821   1822 1
  1917   1822   1823 1
  1918   1822   1824 1
  1919   1823   1827 1
  1920   1824   1825 1
  1921   1824   1826 1
  1922   1826   1827 1
  1923   1827   1828 1
  1924   1828   1829 am
  1925   1828   1836 1
  1926   1829   1830 2
  1927   1829   1831 am
  1928   1831   1832 am
  1929   1832   1833 2
  1930   1832   1834 1
  1931   1834   1835 1
  1932   1834   1836 2
  1933   1849   1850 1
  1934   1849   1851 1
  1935   1849   1852 1
  1936   1852   1853 1
  1937   1853   1854 1
  1938   1854   1855 1
  1939   1854   1856 1
  1940   1855   1859 1
  1941   1856   1857 1
  1942   1856   1858 1
  1943   1858   1859 1
  1944   1859   1860 1
  1945   1860   1861 am
  1946   1860   1868 1
  1947   1861   1862 2
  1948   1861   1863 am
  1949   1863   1864 am
  1950   1864   1865 2
  1951   1864   1866 1
  1952   1866   1867 1
  1953   1866   1868 2
  1954   1881   1882 1
  1955   1881   1883 1
  1956   1881   1884 1
  1957   1884   1885 1
  1958   1885   1886 1
  1959   1886   1887 1
  1960   1886   1888 1
  1961   1887   1891 1
  1962   1888   1889 1
  1963   1888   1890 1
  1964   1890   1891 1
  1965   1891   1892 1
  1966   1892   1893 ar
  1967   1892   1901 ar
  1968   1893   1894 ar
  1969   1894   1895 ar
  1970   1895   1896 ar
  1971   1895   1901 ar
  1972   1896   1897 1
  1973   1896   1898 ar
  1974   1898   1899 ar
  1975   1899   1900 ar
  1976   1900   1901 ar
  1977   1913   1914 1
  1978   1913   1915 1
  1979   1913   1916 1
  1980   1916   1917 1
  1981   1917   1918 1
  1982   1918   1919 1
  1983   1918   1920 1
  1984   1919   1923 1
  1985   1920   1921 1
  1986   1920   1922 1
  1987   1922   1923 1
  1988   1923   1924 1
  1989   1924   1925 ar
  1990   1924   1933 ar
  1991   1925   1926 ar
  1992   1926   1927 ar
  1993   1927   1928 ar
  1994   1927   1933 ar
  1995   1928   1929 1
  1996   1928   1930 ar
  1997   1930   1931 ar
  1998   1931   1932 ar
  1999   1932   1933 ar
  2000   1945   1946 1
  2001   1945   1947 1
  2002   1945   1948 1
  2003   1948   1949 1
  2004   1949   1950 1
  2005   1950   1951 1
  2006   1950   1952 1
  2007   1951   1955 1
  2008   1952   1953 1
  2009   1952   1954 1
  2010   1954   1955 1
  2011   1955   1956 1
  2012   1956   1957 am
  2013   1956   1964 1
  2014   1957   1958 2
  2015   1957   1959 am
  2016   1959   1960 am
  2017   1960   1961 2
  2018   1960   1962 1
  2019   1962   1963 1
  2020   1962   1964 2
  2021   1977   1978 1
  2022   1977   1979 1
  2023   1977   1980 1
  2024   1980   1981 1
  2025   1981   1982 1
  2026   1982   1983 1
  2027   1982   1984 1
  2028   1983   1987 1
  2029   1984   1985 1
  2030   1984   1986 1
  2031   1986   1987 1
  2032   1987   1988 1
  2033   1988   1989 am
  2034   1988   1996 1
  2035   1989   1990 2
  2036   1989   1991 am
  2037   1991   1992 am
  2038   1992   1993 2
  2039   1992   1994 1
  2040   1994   1995 1
  2041   1994   1996 2
  2042   2009   2010 1
  2043   2009   2011 1
  2044   2009   2012 1
  2045   2012   2013 1
  2046   2013   2014 1
  2047   2014   2015 1
  2048   2014   2016 1
  2049   2015   2019 1
  2050   2016   2017 1
  2051   2016   2018 1
  2052   2018   2019 1
  2053   2019   2020 1
  2054   2020   2021 am
  2055   2020   2027 1
  2056   2021   2022 2
  2057   2021   2023 1
  2058   2023   2024 2
  2059   2024   2025 2
  2060   2024   2026 2
  2061   2026   2027 2
  2062   2039   2040 1
  2063   2039   2041 1
  2064   2039   2042 1
  2065   2042   2043 1
  2066   2043   2044 1
  2067   2044   2045 1
  2068   2044   2046 1
  2069   2045   2049 1
  2070   2046   2047 1
  2071   2046   2048 1
  2072   2048   2049 1
  2073   2049   2050 1
  2074   2050   2051 ar
  2075   2050   2059 ar
  2076   2051   2052 ar
  2077   2052   2053 ar
  2078   2053   2054 ar
  2079   2053   2059 ar
  2080   2054   2055 1
  2081   2054   2056 ar
  2082   2056   2057 ar
  2083   2057   2058 ar
  2084   2058   2059 ar
  2085   2071   2072 1
  2086   2071   2073 1
  2087   2071   2074 1
  2088   2074   2075 1
  2089   2075   2076 1
  2090   2076   2077 1
  2091   2076   2078 1
  2092   2077   2081 1
  2093   2078   2079 1
  2094   2078   2080 1
  2095   2080   2081 1
  2096   2081   2082 1
  2097   2082   2083 am
  2098   2082   2089 1
  2099   2083   2084 2
  2100   2083   2085 1
  2101   2085   2086 2
  2102   2086   2087 2
  2103   2086   2088 2
  2104   2088   2089 2
  2105   1677   1659 1
  2106   1678   1659 1
  2107   1679   1660 1
  2108   1680   1662 1
  2109   1681   1664 1
  2110   1682   1664 1
  2111   1683   1665 1
  2112   1684   1667 1
  2113   1685   1672 1
  2114   1708   1692 1
  2115   1709   1692 1
  2116   1710   1693 1
  2117   1711   1695 1
  2118   1712   1697 1
  2119   1713   1697 1
  2120   1714   1698 1
  2121   1715   1702 1
  2122   1716   1707 1
  2123   1742   1724 1
  2124   1743   1724 1
  2125   1744   1725 1
  2126   1745   1727 1
  2127   1746   1729 1
  2128   1747   1729 1
  2129   1748   1730 1
  2130   1749   1732 1
  2131   1750   1737 1
  2132   1774   1757 1
  2133   1775   1757 1
  2134   1776   1758 1
  2135   1777   1760 1
  2136   1778   1762 1
  2137   1779   1762 1
  2138   1780   1763 1
  2139   1781   1765 1
  2140   1782   1771 1
  2141   1806   1789 1
  2142   1807   1789 1
  2143   1808   1790 1
  2144   1809   1792 1
  2145   1810   1794 1
  2146   1811   1794 1
  2147   1812   1795 1
  2148   1813   1797 1
  2149   1814   1803 1
  2150   1837   1821 1
  2151   1838   1821 1
  2152   1839   1822 1
  2153   1840   1824 1
  2154   1841   1826 1
  2155   1842   1826 1
  2156   1843   1827 1
  2157   1844   1831 1
  2158   1845   1836 1
  2159   1869   1853 1
  2160   1870   1853 1
  2161   1871   1854 1
  2162   1872   1856 1
  2163   1873   1858 1
  2164   1874   1858 1
  2165   1875   1859 1
  2166   1876   1863 1
  2167   1877   1868 1
  2168   1902   1885 1
  2169   1903   1885 1
  2170   1904   1886 1
  2171   1905   1888 1
  2172   1906   1890 1
  2173   1907   1890 1
  2174   1908   1891 1
  2175   1909   1893 1
  2176   1910   1899 1
  2177   1934   1917 1
  2178   1935   1917 1
  2179   1936   1918 1
  2180   1937   1920 1
  2181   1938   1922 1
  2182   1939   1922 1
  2183   1940   1923 1
  2184   1941   1925 1
  2185   1942   1931 1
  2186   1965   1949 1
  2187   1966   1949 1
  2188   1967   1950 1
  2189   1968   1952 1
  2190   1969   1954 1
  2191   1970   1954 1
  2192   1971   1955 1
  2193   1972   1959 1
  2194   1973   1964 1
  2195   1997   1981 1
  2196   1998   1981 1
  2197   1999   1982 1
  2198   2000   1984 1
  2199   2001   1986 1
  2200   2002   1986 1
  2201   2003   1987 1
  2202   2004   1991 1
  2203   2005   1996 1
  2204   2028   2013 1
  2205   2029   2013 1
  2206   2030   2014 1
  2207   2031   2016 1
  2208   2032   2018 1
  2209   2033   2018 1
  2210   2034   2019 1
  2211   2035   2026 1
  2212   2036   2027 1
  2213   2060   2043 1
  2214   2061   2043 1
  2215   2062   2044 1
  2216   2063   2046 1
  2217   2064   2048 1
  2218   2065   2048 1
  2219   2066   2049 1
  2220   2067   2051 1
  2221   2068   2057 1
  2222   2090   2075 1
  2223   2091   2075 1
  2224   2092   2076 1
  2225   2093   2078 1
  2226   2094   2080 1
  2227   2095   2080 1
  2228   2096   2081 1
  2229   2097   2088 1
  2230   2098   2089 1
  2231   1686   1674 1
  2232   1687   1674 1
  2233   1751   1739 1
  2234   1752   1739 1
  2235   2037   2025 1
  2236   2038   2025 1
  2237   2099   2087 1
  2238   2100   2087 1
  2239   1783   1769 1
  2240   1784   1769 1
  2241   1815   1801 1
  2242   1816   1801 1
  2243   1911   1897 1
  2244   1912   1897 1
  2245   1943   1929 1
  2246   1944   1929 1
  2247   2069   2055 1
  2248   2070   2055 1
  2249   1717   1706 1
  2250   1718   1706 1
  2251   1719   1706 1
  2252   1846   1835 1
  2253   1847   1835 1
  2254   1848   1835 1
  2255   1878   1867 1
  2256   1879   1867 1
  2257   1880   1867 1
  2258   1974   1963 1
  2259   1975   1963 1
  2260   1976   1963 1
  2261   2006   1995 1
  2262   2007   1995 1
  2263   2008   1995 1
@<TRIPOS>MOLECULE
dna-seg-02-bp33
2098 2261 1 0 0
BIOPOLYMER
NO_CHARGES


@<TRIPOS>ATOM
      1 P          0.4195    -9.1155   187.2937 P.3       68 DC      0.0000
      2 OP1        1.2640    -9.7837   186.2258 O.co2     68 DC      0.0000
      3 OP2       -0.5040    -9.9990   188.0287 O.co2     68 DC      0.0000
      4 O5'        1.4185    -8.1257   188.1197 O.3       68 DC      0.0000
      5 C5'        1.8755    -7.1658   187.0975 C.3       68 DC      0.0000
      6 C4'        2.7525    -6.1646   187.7940 C.3       68 DC      0.0000
      7 O4'        2.0990    -4.9583   188.0409 O.3       68 DC      0.0000
      8 C3'        3.3965    -6.6561   189.0854 C.3       68 DC      0.0000
      9 O3'        4.8111    -6.5410   189.0058 O.3       68 DC      0.0000
     10 C2'        2.6597    -5.8202   190.1342 C.3       68 DC      0.0000
     11 C1'        2.3113    -4.5647   189.4378 C.3       68 DC      0.0000
     12 N1         1.0209    -3.9527   189.7699 N.am      68 DC      0.0000
     13 C2         1.0447    -2.5834   190.0257 C.2       68 DC      0.0000
     14 O2         2.1040    -1.9488   190.0302 O.2       68 DC      0.0000
     15 N3        -0.1528    -1.9702   190.2995 N.2       68 DC      0.0000
     16 C4        -1.3270    -2.6641   190.2896 C.2       68 DC      0.0000
     17 N4        -2.4327    -1.9817   190.5665 N.pl3     68 DC      0.0000
     18 C5        -1.3376    -4.0487   190.0116 C.2       68 DC      0.0000
     19 C6        -0.1530    -4.6369   189.7468 C.2       68 DC      0.0000
     20 H5'        2.4416    -7.6845   186.3238 H         68 DC      0.0000
     21 H5''       1.0176    -6.6611   186.6533 H         68 DC      0.0000
     22 H4'        3.5690    -5.9390   187.1080 H         68 DC      0.0000
     23 H3'        3.1379    -7.7052   189.2287 H         68 DC      0.0000
     24 H2'        1.7599    -6.3343   190.4721 H         68 DC      0.0000
     25 H2''       3.3155    -5.6128   190.9798 H         68 DC      0.0000
     26 H1'        3.1193    -3.8375   189.5188 H         68 DC      0.0000
     27 H5        -2.2578    -4.6142   190.0110 H         68 DC      0.0000
     28 H6        -0.1368    -5.6900   189.5078 H         68 DC      0.0000
     29 H41       -2.3794    -0.9931   190.7657 H         68 DC      0.0000
     30 H42       -3.3266    -2.4518   190.5778 H         68 DC      0.0000
     31 P          5.8916    -7.2890   189.9578 P.3       69 DA      0.0000
     32 OP1        7.1790    -7.4012   189.1641 O.co2     69 DA      0.0000
     33 OP2        5.3457    -8.6174   190.3033 O.co2     69 DA      0.0000
     34 O5'        6.0383    -6.2869   191.2548 O.3       69 DA      0.0000
     35 C5'        6.3419    -4.8891   190.9596 C.3       69 DA      0.0000
     36 C4'        6.3471    -4.0798   192.2149 C.3       69 DA      0.0000
     37 O4'        5.1544    -3.3275   192.4570 O.3       69 DA      0.0000
     38 C3'        6.4969    -4.8791   193.5201 C.3       69 DA      0.0000
     39 O3'        6.9369    -3.9909   194.5500 O.3       69 DA      0.0000
     40 C2'        5.0249    -5.2843   193.7347 C.3       69 DA      0.0000
     41 C1'        4.4300    -3.8840   193.5514 C.3       69 DA      0.0000
     42 N9         2.9836    -3.9872   193.4571 N.ar      69 DA      0.0000
     43 C8         2.1747    -5.0835   193.3413 C.ar      69 DA      0.0000
     44 N7         0.8799    -4.8220   193.3227 N.ar      69 DA      0.0000
     45 C5         0.8351    -3.4392   193.4302 C.ar      69 DA      0.0000
     46 C6        -0.2462    -2.5245   193.4647 C.ar      69 DA      0.0000
     47 N6        -1.5193    -2.8661   193.3795 N.pl3     69 DA      0.0000
     48 N1         0.0852    -1.2065   193.5973 N.ar      69 DA      0.0000
     49 C2         1.3928    -0.8074   193.6775 C.ar      69 DA      0.0000
     50 N3         2.4588    -1.6037   193.6476 N.ar      69 DA      0.0000
     51 C4         2.1112    -2.9082   193.5246 C.ar      69 DA      0.0000
     52 H5'        7.3228    -4.8267   190.4884 H         69 DA      0.0000
     53 H5''       5.5890    -4.4927   190.2783 H         69 DA      0.0000
     54 H4'        7.1786    -3.3776   192.1560 H         69 DA      0.0000
     55 H3'        7.1534    -5.7417   193.4064 H         69 DA      0.0000
     56 H2'        4.6714    -5.9910   192.9839 H         69 DA      0.0000
     57 H2''       4.8580    -5.6591   194.7446 H         69 DA      0.0000
     58 H1'        4.6668    -3.3005   194.4411 H         69 DA      0.0000
     59 H8         2.5650    -6.0880   193.2703 H         69 DA      0.0000
     60 H2         1.5760     0.2525   193.7739 H         69 DA      0.0000
     61 H61       -2.3899    -2.3868   193.5595 H         69 DA      0.0000
     62 H62       -1.6513    -3.8167   193.0647 H         69 DA      0.0000
     63 P          8.4753    -3.5737   194.6905 P.3       70 DC      0.0000
     64 OP1        9.2619    -3.8018   193.4454 O.co2     70 DC      0.0000
     65 OP2        8.9339    -4.4326   195.8334 O.co2     70 DC      0.0000
     66 O5'        8.4057    -2.0149   194.9737 O.3       70 DC      0.0000
     67 C5'        8.2503    -1.0539   193.8859 C.3       70 DC      0.0000
     68 C4'        7.5151     0.0916   194.5909 C.3       70 DC      0.0000
     69 O4'        6.2207    -0.3689   194.9029 O.3       70 DC      0.0000
     70 C3'        8.1665     0.5273   195.9008 C.3       70 DC      0.0000
     71 O3'        8.3949     1.9531   195.9687 O.3       70 DC      0.0000
     72 C2'        7.2046     0.0140   196.9830 C.3       70 DC      0.0000
     73 C1'        5.8957     0.0842   196.3068 C.3       70 DC      0.0000
     74 N1         4.8056    -0.8217   196.6597 N.am      70 DC      0.0000
     75 C2         3.5327    -0.2550   196.6328 C.2       70 DC      0.0000
     76 O2         3.3435     0.9371   196.4259 O.2       70 DC      0.0000
     77 N3         2.4779    -1.0756   196.8859 N.2       70 DC      0.0000
     78 C4         2.6275    -2.4019   197.1193 C.2       70 DC      0.0000
     79 N4         1.5185    -3.1022   197.3502 N.pl3     70 DC      0.0000
     80 C5         3.9306    -2.9711   197.1258 C.2       70 DC      0.0000
     81 C6         4.9666    -2.1552   196.8764 C.2       70 DC      0.0000
     82 H5'        9.2169    -0.7290   193.5011 H         70 DC      0.0000
     83 H5''       7.6376    -1.4716   193.0869 H         70 DC      0.0000
     84 H4'        7.4443     0.9463   193.9182 H         70 DC      0.0000
     85 H3'        9.1216     0.0128   196.0067 H         70 DC      0.0000
     86 H2'        7.4451    -1.0097   197.2700 H         70 DC      0.0000
     87 H2''       7.2219     0.6701   197.8533 H         70 DC      0.0000
     88 H1'        5.5368     1.1133   196.2936 H         70 DC      0.0000
     89 H5         4.0812    -4.0220   197.3243 H         70 DC      0.0000
     90 H6         5.9626    -2.5716   196.8467 H         70 DC      0.0000
     91 H41        0.6194    -2.6423   197.3391 H         70 DC      0.0000
     92 H42        1.5767    -4.0932   197.5363 H         70 DC      0.0000
     93 P         -8.4683    -0.5788   198.9282 P.3       70 DG      0.0000
     94 OP1       -9.9437    -0.7467   199.1070 O.co2     70 DG      0.0000
     95 OP2       -7.8926    -1.4795   197.8434 O.co2     70 DG      0.0000
     96 O5'       -8.1218     1.0169   198.7210 O.3       70 DG      0.0000
     97 C5'       -7.4903     1.7588   199.8168 C.3       70 DG      0.0000
     98 C4'       -6.4884     2.7207   199.1825 C.3       70 DG      0.0000
     99 O4'       -5.2084     2.1579   199.0867 O.3       70 DG      0.0000
    100 C3'       -6.8600     3.1833   197.7761 C.3       70 DG      0.0000
    101 O3'       -6.5707     4.5750   197.5091 O.3       70 DG      0.0000
    102 C2'       -6.0309     2.2516   196.8739 C.3       70 DG      0.0000
    103 C1'       -4.7613     2.1141   197.6977 C.3       70 DG      0.0000
    104 N9        -4.0880     0.8330   197.4244 N.ar      70 DG      0.0000
    105 C8        -4.6613    -0.4065   197.2677 C.ar      70 DG      0.0000
    106 N7        -3.8012    -1.3656   197.0493 N.ar      70 DG      0.0000
    107 C5        -2.5719    -0.7174   197.0741 C.ar      70 DG      0.0000
    108 C6        -1.2489    -1.2101   196.9176 C.2       70 DG      0.0000
    109 O6        -0.9161    -2.3875   196.7208 O.2       70 DG      0.0000
    110 N1        -0.2735    -0.2475   197.0045 N.am      70 DG      0.0000
    111 C2        -0.5534     1.0604   197.2252 C.2       70 DG      0.0000
    112 N2         0.4944     1.8774   197.2886 N.pl3     70 DG      0.0000
    113 N3        -1.7788     1.5755   197.3829 N.2       70 DG      0.0000
    114 C4        -2.7354     0.6305   197.2996 C.ar      70 DG      0.0000
    115 H5'       -8.2430     2.3159   200.3745 H         70 DG      0.0000
    116 H5''      -6.9716     1.0682   200.4817 H         70 DG      0.0000
    117 H4'       -6.4205     3.6028   199.8192 H         70 DG      0.0000
    118 H3'       -7.9206     2.9979   197.6057 H         70 DG      0.0000
    119 H2'       -6.5227     1.2894   196.7312 H         70 DG      0.0000
    120 H2''      -5.8215     2.7260   195.9151 H         70 DG      0.0000
    121 H1'       -4.0870     2.9456   197.4924 H         70 DG      0.0000
    122 H8        -5.7271    -0.5728   197.3205 H         70 DG      0.0000
    123 H1         0.6918    -0.5253   196.8997 H         70 DG      0.0000
    124 H21        1.4285     1.5107   197.1735 H         70 DG      0.0000
    125 H22        0.3560     2.8645   197.4517 H         70 DG      0.0000
    126 P         -6.2243     4.9315   195.9857 P.3       69 DT      0.0000
    127 OP1       -6.5856     6.3392   195.5948 O.co2     69 DT      0.0000
    128 OP2       -7.0803     3.9427   195.2851 O.co2     69 DT      0.0000
    129 O5'       -4.6424     4.7133   195.8548 O.3       69 DT      0.0000
    130 C5'       -3.7925     5.8743   196.1224 C.3       69 DT      0.0000
    131 C4'       -2.4937     5.7010   195.3653 C.3       69 DT      0.0000
    132 O4'       -2.0458     4.3575   195.3381 O.3       69 DT      0.0000
    133 C3'       -2.5892     6.1343   193.9106 C.3       69 DT      0.0000
    134 O3'       -1.4058     6.7976   193.4155 O.3       69 DT      0.0000
    135 C2'       -2.8489     4.8312   193.1878 C.3       69 DT      0.0000
    136 C1'       -1.9094     3.9248   193.9659 C.3       69 DT      0.0000
    137 N1        -2.4214     2.5538   193.8146 N.am      69 DT      0.0000
    138 C2        -1.4833     1.5321   193.9214 C.2       69 DT      0.0000
    139 O2        -0.2999     1.7921   194.1111 O.2       69 DT      0.0000
    140 N3        -1.9408     0.2497   193.8012 N.am      69 DT      0.0000
    141 C4        -3.2568    -0.0289   193.5836 C.2       69 DT      0.0000
    142 O4        -3.5888    -1.2565   193.4861 O.2       69 DT      0.0000
    143 C5        -4.1938     1.0384   193.4772 C.2       69 DT      0.0000
    144 C7        -5.6484     0.7427   193.2483 C.3       69 DT      0.0000
    145 C6        -3.7414     2.2890   193.5990 C.2       69 DT      0.0000
    146 H5'       -4.2944     6.7825   195.7887 H         69 DT      0.0000
    147 H5''      -3.5878     5.9402   197.1910 H         69 DT      0.0000
    148 H4'       -1.7299     6.3064   195.8533 H         69 DT      0.0000
    149 H3'       -3.4493     6.7923   193.7866 H         69 DT      0.0000
    150 H2'       -3.8880     4.5150   193.2793 H         69 DT      0.0000
    151 H2''      -2.5508     4.8979   192.1414 H         69 DT      0.0000
    152 H1'       -0.8810     4.0128   193.6152 H         69 DT      0.0000
    153 H3        -1.2840    -0.5140   193.8759 H         69 DT      0.0000
    154 H6        -4.4382     3.1107   193.5249 H         69 DT      0.0000
    155 H71       -5.7941    -0.3353   193.1796 H         69 DT      0.0000
    156 H72       -6.2340     1.1360   194.0792 H         69 DT      0.0000
    157 H73       -5.9731     1.2131   192.3201 H         69 DT      0.0000
    158 P         -1.9074     8.1749   192.6371 P.3       68 DG      0.0000
    159 OP1       -1.8918     9.3885   193.5084 O.co2     68 DG      0.0000
    160 OP2       -3.2598     7.7170   192.2316 O.co2     68 DG      0.0000
    161 O5'       -0.7414     8.3391   191.5563 O.3       68 DG      0.0000
    162 C5'        0.5324     8.8877   191.9798 C.3       68 DG      0.0000
    163 C4'        1.5662     7.8620   191.5321 C.3       68 DG      0.0000
    164 O4'        1.0904     6.5587   191.8028 O.3       68 DG      0.0000
    165 C3'        1.9123     7.9238   190.0443 C.3       68 DG      0.0000
    166 O3'        3.3021     8.0999   189.8358 O.3       68 DG      0.0000
    167 C2'        1.3207     6.6499   189.4676 C.3       68 DG      0.0000
    168 C1'        1.3220     5.7147   190.6538 C.3       68 DG      0.0000
    169 N9         0.2616     4.7108   190.5302 N.ar      68 DG      0.0000
    170 C8        -1.0805     4.9101   190.3713 C.ar      68 DG      0.0000
    171 N7        -1.7731     3.8000   190.2933 N.ar      68 DG      0.0000
    172 C5        -0.8192     2.7959   190.4308 C.ar      68 DG      0.0000
    173 C6        -0.9287     1.3803   190.4403 C.2       68 DG      0.0000
    174 O6        -1.9554     0.7161   190.3412 O.2       68 DG      0.0000
    175 N1         0.2575     0.7194   190.5892 N.am      68 DG      0.0000
    176 C2         1.4523     1.3847   190.7221 C.2       68 DG      0.0000
    177 N2         2.5341     0.6173   190.8578 N.pl3     68 DG      0.0000
    178 N3         1.6246     2.7104   190.7264 N.2       68 DG      0.0000
    179 C4         0.4407     3.3517   190.5757 C.ar      68 DG      0.0000
    180 H5'        0.7142     9.8499   191.5011 H         68 DG      0.0000
    181 H5''       0.5543     8.9962   193.0641 H         68 DG      0.0000
    182 H4'        2.4796     8.0210   192.1051 H         68 DG      0.0000
    183 H3'        1.3895     8.7737   189.6058 H         68 DG      0.0000
    184 H2'        0.3080     6.8180   189.1013 H         68 DG      0.0000
    185 H2''       1.9554     6.2594   188.6721 H         68 DG      0.0000
    186 H1'        2.2915     5.2242   190.7408 H         68 DG      0.0000
    187 H8        -1.5292     5.8909   190.3152 H         68 DG      0.0000
    188 H1         0.2562    -0.2905   190.6021 H         68 DG      0.0000
    189 H21        2.4429    -0.3886   190.8587 H         68 DG      0.0000
    190 H22        3.4448     1.0418   190.9596 H         68 DG      0.0000
    191 P          9.1052     4.1804   200.9698 P.3       71 DG      0.0000
    192 OP1       10.5859     4.0839   200.9682 O.co2     71 DG      0.0000
    193 OP2        8.5975     3.1875   202.0254 O.co2     71 DG      0.0000
    194 O5'        8.4799     5.6326   201.1481 O.3       71 DG      0.0000
    195 C5'        7.9180     6.5088   200.1481 C.3       71 DG      0.0000
    196 C4'        6.5719     6.9914   200.6470 C.3       71 DG      0.0000
    197 O4'        5.5183     6.1513   200.2278 O.3       71 DG      0.0000
    198 C3'        6.3989     7.1905   202.1391 C.3       71 DG      0.0000
    199 O3'        5.9297     8.5299   202.4511 O.3       71 DG      0.0000
    200 C2'        5.4306     6.1018   202.5610 C.3       71 DG      0.0000
    201 C1'        4.6396     5.8253   201.3054 C.3       71 DG      0.0000
    202 N9         4.2148     4.4140   201.2763 N.ar      71 DG      0.0000
    203 C8         4.9522     3.2763   201.5052 C.ar      71 DG      0.0000
    204 N7         4.2616     2.1621   201.4155 N.ar      71 DG      0.0000
    205 C5         2.9763     2.5938   201.0985 C.ar      71 DG      0.0000
    206 C6         1.7711     1.8840   200.8726 C.2       71 DG      0.0000
    207 O6         1.5880     0.6665   200.8939 O.2       71 DG      0.0000
    208 N1         0.6814     2.6616   200.5911 N.am      71 DG      0.0000
    209 C2         0.7326     3.9538   200.5304 C.2       71 DG      0.0000
    210 N2        -0.4129     4.4321   200.2336 N.pl3     71 DG      0.0000
    211 N3         1.8690     4.7417   200.7392 N.2       71 DG      0.0000
    212 C4         2.9330     3.9727   201.0117 C.ar      71 DG      0.0000
    213 H5'        8.5798     7.3603   199.9894 H         71 DG      0.0000
    214 H5''       7.7895     5.9641   199.2128 H         71 DG      0.0000
    215 H4'        6.3986     7.9620   200.1822 H         71 DG      0.0000
    216 H3'        7.3564     7.0254   202.6331 H         71 DG      0.0000
    217 H2'        5.9658     5.2104   202.8880 H         71 DG      0.0000
    218 H2''       4.7738     6.4627   203.3525 H         71 DG      0.0000
    219 H1'        3.7635     6.4730   201.2734 H         71 DG      0.0000
    220 H8         6.0066     3.2968   201.7383 H         71 DG      0.0000
    221 H1        -0.2044     2.2063   200.4227 H         71 DG      0.0000
    222 H21       -1.1971     3.8122   200.0893 H         71 DG      0.0000
    223 H22       -0.5352     5.4306   200.1432 H         71 DG      0.0000
    224 P          5.3926     8.9341   203.8797 P.3       72 DT      0.0000
    225 OP1        5.8095    10.2887   204.3914 O.co2     72 DT      0.0000
    226 OP2        6.1128     7.9304   204.7984 O.co2     72 DT      0.0000
    227 O5'        3.8696     8.6472   203.9083 O.3       72 DT      0.0000
    228 C5'        2.8626     9.6863   203.7643 C.3       72 DT      0.0000
    229 C4'        1.5415     8.9481   203.8218 C.3       72 DT      0.0000
    230 O4'        1.6873     7.5722   203.5466 O.3       72 DT      0.0000
    231 C3'        0.8015     8.9990   205.1345 C.3       72 DT      0.0000
    232 O3'       -0.4260     9.7184   204.9463 O.3       72 DT      0.0000
    233 C2'        0.5456     7.5440   205.5267 C.3       72 DT      0.0000
    234 C1'        0.5680     6.8811   204.1740 C.3       72 DT      0.0000
    235 N1         0.9272     5.4661   204.2706 N.am      72 DT      0.0000
    236 C2        -0.0684     4.5482   204.0727 C.2       72 DT      0.0000
    237 O2        -1.2290     4.8745   203.8345 O.2       72 DT      0.0000
    238 N3         0.2774     3.2261   204.1538 N.am      72 DT      0.0000
    239 C4         1.5386     2.8107   204.4097 C.2       72 DT      0.0000
    240 O4         1.7036     1.5635   204.4549 O.2       72 DT      0.0000
    241 C5         2.5679     3.7858   204.6094 C.2       72 DT      0.0000
    242 C7         3.9750     3.3684   204.8893 C.3       72 DT      0.0000
    243 C6         2.2206     5.0766   204.5279 C.2       72 DT      0.0000
    244 H5'        2.9356    10.4082   204.5777 H         72 DT      0.0000
    245 H5''       2.9729    10.1883   202.8031 H         72 DT      0.0000
    246 H4'        0.8907     9.3723   203.0572 H         72 DT      0.0000
    247 H3'        1.4127     9.4902   205.8916 H         72 DT      0.0000
    248 H2'        1.3323     7.1589   206.1755 H         72 DT      0.0000
    249 H2''      -0.4322     7.4350   205.9960 H         72 DT      0.0000
    250 H1'       -0.3637     7.0311   203.6287 H         72 DT      0.0000
    251 H3        -0.4414     2.5301   204.0163 H         72 DT      0.0000
    252 H6         2.9782     5.8334   204.6682 H         72 DT      0.0000
    253 H71        4.5726     3.4732   203.9837 H         72 DT      0.0000
    254 H72        3.9873     2.3281   205.2140 H         72 DT      0.0000
    255 H73        4.3917     3.9992   205.6746 H         72 DT      0.0000
    256 P         -0.8271    10.6386   206.2262 P.3       73 DG      0.0000
    257 OP1       -1.4352    11.8385   205.5112 O.co2     73 DG      0.0000
    258 OP2        0.3753    10.9465   206.9798 O.co2     73 DG      0.0000
    259 O5'       -1.9282     9.5993   206.8358 O.3       73 DG      0.0000
    260 C5'       -2.7994     9.1145   205.7452 C.3       73 DG      0.0000
    261 C4'       -3.5641     7.9330   206.2652 C.3       73 DG      0.0000
    262 O4'       -2.9718     6.6745   206.0846 O.3       73 DG      0.0000
    263 C3'       -3.8924     8.0575   207.7732 C.3       73 DG      0.0000
    264 O3'       -5.3226     7.8948   207.9321 O.3       73 DG      0.0000
    265 C2'       -3.0188     7.0075   208.4258 C.3       73 DG      0.0000
    266 C1'       -2.9619     5.9350   207.3443 C.3       73 DG      0.0000
    267 N9        -1.7912     5.0670   207.5138 N.ar      73 DG      0.0000
    268 C8        -0.5114     5.4126   207.8500 C.ar      73 DG      0.0000
    269 N7         0.3248     4.4016   207.9358 N.ar      73 DG      0.0000
    270 C5        -0.4729     3.3083   207.6057 C.ar      73 DG      0.0000
    271 C6        -0.1604     1.9220   207.5114 C.2       73 DG      0.0000
    272 O6         0.9323     1.3682   207.7037 O.2       73 DG      0.0000
    273 N1        -1.2273     1.1200   207.1763 N.am      73 DG      0.0000
    274 C2        -2.4698     1.6301   206.9526 C.2       73 DG      0.0000
    275 N2        -3.3856     0.7027   206.6438 N.pl3     73 DG      0.0000
    276 N3        -2.8103     2.9149   207.0236 N.2       73 DG      0.0000
    277 C4        -1.7695     3.7001   207.3502 C.ar      73 DG      0.0000
    278 H5'       -3.4910     9.9015   205.4447 H         73 DG      0.0000
    279 H5''      -2.1904     8.8134   204.8928 H         73 DG      0.0000
    280 H4'       -4.5161     7.9138   205.7346 H         73 DG      0.0000
    281 H3'       -3.5983     9.0454   208.1280 H         73 DG      0.0000
    282 H2'       -2.0264     7.3994   208.6488 H         73 DG      0.0000
    283 H2''      -3.4915     6.6197   209.3282 H         73 DG      0.0000
    284 H1'       -3.8641     5.3262   207.4032 H         73 DG      0.0000
    285 H8        -0.2115     6.4344   208.0306 H         73 DG      0.0000
    286 H1        -1.0846     0.1236   207.0940 H         73 DG      0.0000
    287 H21       -3.1215    -0.2708   206.5935 H         73 DG      0.0000
    288 H22       -4.3404     0.9771   206.4611 H         73 DG      0.0000
    289 P         -6.0176     8.0765   209.3205 P.3       74 DA      0.0000
    290 OP1       -6.4640     9.4577   209.6759 O.co2     74 DA      0.0000
    291 OP2       -4.7702     7.7364   210.2163 O.co2     74 DA      0.0000
    292 O5'       -7.0085     6.8638   209.5696 O.3       74 DA      0.0000
    293 C5'       -7.5913     6.0507   208.5406 C.3       74 DA      0.0000
    294 C4'       -7.4159     4.6172   209.0149 C.3       74 DA      0.0000
    295 O4'       -6.0610     4.2317   208.9245 O.3       74 DA      0.0000
    296 C3'       -7.8686     4.3172   210.4440 C.3       74 DA      0.0000
    297 O3'       -8.6728     3.1207   210.4963 O.3       74 DA      0.0000
    298 C2'       -6.5307     4.1724   211.1794 C.3       74 DA      0.0000
    299 C1'       -5.7392     3.4470   210.1018 C.3       74 DA      0.0000
    300 N9        -4.2908     3.4483   210.3302 N.ar      74 DA      0.0000
    301 C8        -3.4369     4.4925   210.5460 C.ar      74 DA      0.0000
    302 N7        -2.1840     4.1309   210.7110 N.ar      74 DA      0.0000
    303 C5        -2.2148     2.7514   210.5708 C.ar      74 DA      0.0000
    304 C6        -1.1885     1.7829   210.6187 C.ar      74 DA      0.0000
    305 N6         0.0994     2.0579   210.8385 N.pl3     74 DA      0.0000
    306 N1        -1.5958     0.4927   210.4289 N.ar      74 DA      0.0000
    307 C2        -2.8969     0.1916   210.2112 C.ar      74 DA      0.0000
    308 N3        -3.9153     1.0489   210.1529 N.ar      74 DA      0.0000
    309 C4        -3.4960     2.3136   210.3398 C.ar      74 DA      0.0000
    310 H5'       -7.0745     6.2053   207.5934 H         74 DA      0.0000
    311 H5''      -8.6507     6.2836   208.4328 H         74 DA      0.0000
    312 H4'       -7.9878     3.9749   208.3451 H         74 DA      0.0000
    313 H3'       -8.4276     5.1625   210.8454 H         74 DA      0.0000
    314 H2'       -6.0934     5.1402   211.4249 H         74 DA      0.0000
    315 H2''      -6.6382     3.5537   212.0703 H         74 DA      0.0000
    316 H1'       -6.1034     2.4260   209.9873 H         74 DA      0.0000
    317 H8        -3.7618     5.5220   210.5781 H         74 DA      0.0000
    318 H2        -3.1348    -0.8524   210.0698 H         74 DA      0.0000
    319 H61        0.5212     2.9704   210.7411 H         74 DA      0.0000
    320 H62        0.7804     1.3320   210.6670 H         74 DA      0.0000
    321 P         -9.8311     2.8894   211.6377 P.3       75 DA      0.0000
    322 OP1      -11.1770     2.7507   210.9706 O.co2     75 DA      0.0000
    323 OP2       -9.6576     4.0982   212.4686 O.co2     75 DA      0.0000
    324 O5'       -9.5028     1.4212   212.1685 O.3       75 DA      0.0000
    325 C5'       -9.5399     0.2575   211.3442 C.3       75 DA      0.0000
    326 C4'       -8.5054    -0.7241   211.8665 C.3       75 DA      0.0000
    327 O4'       -7.2294    -0.1496   211.8947 O.3       75 DA      0.0000
    328 C3'       -8.7509    -1.3382   213.2338 C.3       75 DA      0.0000
    329 O3'       -8.9305    -2.7522   213.1560 O.3       75 DA      0.0000
    330 C2'       -7.5449    -0.8788   214.0626 C.3       75 DA      0.0000
    331 C1'       -6.4834    -0.6072   213.0688 C.3       75 DA      0.0000
    332 N9        -5.4539     0.4135   213.3368 N.ar      75 DA      0.0000
    333 C8        -5.5711     1.7774   213.4520 C.ar      75 DA      0.0000
    334 N7        -4.4298     2.4019   213.6213 N.ar      75 DA      0.0000
    335 C5        -3.4849     1.3814   213.5843 C.ar      75 DA      0.0000
    336 C6        -2.0661     1.3988   213.7047 C.ar      75 DA      0.0000
    337 N6        -1.3225     2.4812   213.8964 N.pl3     75 DA      0.0000
    338 N1        -1.4478     0.1774   213.6066 N.ar      75 DA      0.0000
    339 C2        -2.1798    -0.9588   213.4175 C.ar      75 DA      0.0000
    340 N3        -3.5007    -1.0456   213.3096 N.ar      75 DA      0.0000
    341 C4        -4.0940     0.1616   213.4015 C.ar      75 DA      0.0000
    342 H5'       -9.3062     0.5269   210.3142 H         75 DA      0.0000
    343 H5''     -10.5309    -0.1940   211.3902 H         75 DA      0.0000
    344 H4'       -8.4645    -1.5478   211.1538 H         75 DA      0.0000
    345 H3'       -9.6527    -0.8958   213.6570 H         75 DA      0.0000
    346 H2'       -7.7862     0.0245   214.6228 H         75 DA      0.0000
    347 H2''      -7.2310    -1.6711   214.7421 H         75 DA      0.0000
    348 H1'       -5.9875    -1.5461   212.8227 H         75 DA      0.0000
    349 H8        -6.5202     2.2910   213.4071 H         75 DA      0.0000
    350 H2        -1.6271    -1.8841   213.3483 H         75 DA      0.0000
    351 H61       -1.7141     3.3532   214.2226 H         75 DA      0.0000
    352 H62       -0.3312     2.4313   213.7096 H         75 DA      0.0000
    353 P         -9.9052    -3.6352   214.1122 P.3       76 DT      0.0000
    354 OP1      -10.6663    -4.6884   213.3149 O.co2     76 DT      0.0000
    355 OP2      -10.7323    -2.7756   214.9328 O.co2     76 DT      0.0000
    356 O5'       -8.8169    -4.5618   214.9259 O.3       76 DT      0.0000
    357 C5'       -7.7501    -5.0017   213.9808 C.3       76 DT      0.0000
    358 C4'       -6.4725    -4.8604   214.7685 C.3       76 DT      0.0000
    359 O4'       -6.0705    -3.5227   214.9605 O.3       76 DT      0.0000
    360 C3'       -6.5937    -5.4519   216.1851 C.3       76 DT      0.0000
    361 O3'       -6.0464    -6.7574   216.1868 O.3       76 DT      0.0000
    362 C2'       -5.8695    -4.4512   217.0824 C.3       76 DT      0.0000
    363 C1'       -5.1299    -3.6130   216.1178 C.3       76 DT      0.0000
    364 N1        -4.7552    -2.2496   216.4575 N.am      76 DT      0.0000
    365 C2        -3.3957    -1.9873   216.5955 C.2       76 DT      0.0000
    366 O2        -2.5872    -2.9023   216.5074 O.2       76 DT      0.0000
    367 N3        -3.0096    -0.7059   216.8495 N.am      76 DT      0.0000
    368 C4        -3.8997     0.3227   216.9696 C.2       76 DT      0.0000
    369 O4        -3.4612     1.4896   217.2248 O.2       76 DT      0.0000
    370 C5        -5.2934     0.0326   216.7980 C.2       76 DT      0.0000
    371 C7        -6.3137     1.1335   216.8855 C.3       76 DT      0.0000
    372 C6        -5.6687    -1.2325   216.5423 C.2       76 DT      0.0000
    373 H5'       -7.9050    -6.0376   213.6792 H         76 DT      0.0000
    374 H5''      -7.7288    -4.3521   213.1058 H         76 DT      0.0000
    375 H4'       -5.6790    -5.3882   214.2394 H         76 DT      0.0000
    376 H3'       -7.6449    -5.4991   216.4695 H         76 DT      0.0000
    377 H2'       -6.5791    -3.8548   217.6558 H         76 DT      0.0000
    378 H2''      -5.1781    -4.9668   217.7488 H         76 DT      0.0000
    379 H1'       -4.2369    -4.1515   215.8004 H         76 DT      0.0000
    380 H3        -2.0245    -0.5084   216.9532 H         76 DT      0.0000
    381 H6        -6.7165    -1.4525   216.4001 H         76 DT      0.0000
    382 H71       -5.8128     2.0778   217.0986 H         76 DT      0.0000
    383 H72       -6.8465     1.2109   215.9378 H         76 DT      0.0000
    384 H73       -7.0220     0.9099   217.6833 H         76 DT      0.0000
    385 P         -6.1129    -7.8440   217.2934 P.3       77 DT      0.0000
    386 OP1       -5.8969    -9.2522   216.6813 O.co2     77 DT      0.0000
    387 OP2       -7.4523    -7.7159   217.9234 O.co2     77 DT      0.0000
    388 O5'       -4.7963    -7.5996   218.1757 O.3       77 DT      0.0000
    389 C5'       -3.5796    -7.9516   217.4640 C.3       77 DT      0.0000
    390 C4'       -2.4247    -7.2982   218.1401 C.3       77 DT      0.0000
    391 O4'       -2.4745    -5.8770   218.1168 O.3       77 DT      0.0000
    392 C3'       -2.2325    -7.7101   219.6068 C.3       77 DT      0.0000
    393 O3'       -0.8637    -7.9528   219.8708 O.3       77 DT      0.0000
    394 C2'       -2.6884    -6.4280   220.3431 C.3       77 DT      0.0000
    395 C1'       -2.0007    -5.4249   219.4395 C.3       77 DT      0.0000
    396 N1        -2.4322    -4.0716   219.7372 N.am      77 DT      0.0000
    397 C2        -1.4765    -3.0701   219.7921 C.2       77 DT      0.0000
    398 O2        -0.2948    -3.3628   219.6036 O.2       77 DT      0.0000
    399 N3        -1.8906    -1.7954   220.0580 N.am      77 DT      0.0000
    400 C4        -3.1999    -1.4862   220.2650 C.2       77 DT      0.0000
    401 O4        -3.5104    -0.2811   220.4883 O.2       77 DT      0.0000
    402 C5        -4.1750    -2.5238   220.1999 C.2       77 DT      0.0000
    403 C7        -5.6379    -2.2618   220.4098 C.3       77 DT      0.0000
    404 C6        -3.7508    -3.7701   219.9388 C.2       77 DT      0.0000
    405 H5'       -3.4475    -9.0335   217.4764 H         77 DT      0.0000
    406 H5''      -3.6450    -7.6030   216.4333 H         77 DT      0.0000
    407 H4'       -1.5255    -7.5974   217.6017 H         77 DT      0.0000
    408 H3'       -2.8520    -8.5677   219.8692 H         77 DT      0.0000
    409 H2'       -3.7722    -6.3123   220.3419 H         77 DT      0.0000
    410 H2''      -2.2872    -6.3890   221.3558 H         77 DT      0.0000
    411 H1'       -0.9169    -5.5127   219.5152 H         77 DT      0.0000
    412 H3        -1.2021    -1.0578   220.1024 H         77 DT      0.0000
    413 H6        -4.4791    -4.5657   219.8857 H         77 DT      0.0000
    414 H71       -5.7928    -1.2013   220.6088 H         77 DT      0.0000
    415 H72       -6.1900    -2.5476   219.5145 H         77 DT      0.0000
    416 H73       -5.9937    -2.8463   221.2582 H         77 DT      0.0000
    417 P         -0.0159    -9.1252   220.4788 P.3       78 DC      0.0000
    418 OP1        0.7958    -9.8329   219.4108 O.co2     78 DC      0.0000
    419 OP2       -0.9805    -9.9636   221.2137 O.co2     78 DC      0.0000
    420 O5'        1.0292    -8.1841   221.3048 O.3       78 DC      0.0000
    421 C5'        1.5315    -7.2471   220.2825 C.3       78 DC      0.0000
    422 C4'        2.4553    -6.2889   220.9790 C.3       78 DC      0.0000
    423 O4'        1.8600    -5.0528   221.2259 O.3       78 DC      0.0000
    424 C3'        3.0751    -6.8106   222.2705 C.3       78 DC      0.0000
    425 O3'        4.4935    -6.7631   222.1908 O.3       78 DC      0.0000
    426 C2'        2.3789    -5.9405   223.3193 C.3       78 DC      0.0000
    427 C1'        2.0909    -4.6697   222.6228 C.3       78 DC      0.0000
    428 N1         0.8311    -3.9969   222.9549 N.am      78 DC      0.0000
    429 C2         0.9203    -2.6303   223.2107 C.2       78 DC      0.0000
    430 O2         2.0086    -2.0469   223.2152 O.2       78 DC      0.0000
    431 N3        -0.2467    -1.9606   223.4846 N.2       78 DC      0.0000
    432 C4        -1.4526    -2.5978   223.4747 C.2       78 DC      0.0000
    433 N4        -2.5245    -1.8634   223.7515 N.pl3     78 DC      0.0000
    434 C5        -1.5293    -3.9803   223.1966 C.2       78 DC      0.0000
    435 C6        -0.3741    -4.6243   222.9319 C.2       78 DC      0.0000
    436 H5'        2.0722    -7.7923   219.5089 H         78 DC      0.0000
    437 H5''       0.6986    -6.7020   219.8383 H         78 DC      0.0000
    438 H4'        3.2816    -6.1025   220.2931 H         78 DC      0.0000
    439 H3'        2.7667    -7.8462   222.4138 H         78 DC      0.0000
    440 H2'        1.4557    -6.4111   223.6572 H         78 DC      0.0000
    441 H2''       3.0439    -5.7646   224.1648 H         78 DC      0.0000
    442 H1'        2.9326    -3.9820   222.7038 H         78 DC      0.0000
    443 H5        -2.4753    -4.5012   223.1961 H         78 DC      0.0000
    444 H6        -0.4081    -5.6770   222.6928 H         78 DC      0.0000
    445 H41       -2.4241    -0.8784   223.9507 H         78 DC      0.0000
    446 H42       -3.4398    -2.2902   223.7628 H         78 DC      0.0000
    447 P          5.5371    -7.5618   223.1429 P.3       79 DA      0.0000
    448 OP1        6.8177    -7.7353   222.3491 O.co2     79 DA      0.0000
    449 OP2        4.9285    -8.8626   223.4884 O.co2     79 DA      0.0000
    450 O5'        5.7315    -6.5678   224.4399 O.3       79 DA      0.0000
    451 C5'        6.1014    -5.1861   224.1446 C.3       79 DA      0.0000
    452 C4'        6.1452    -4.3780   225.3999 C.3       79 DA      0.0000
    453 O4'        4.9898    -3.5696   225.6421 O.3       79 DA      0.0000
    454 C3'        6.2568    -5.1835   226.7051 C.3       79 DA      0.0000
    455 O3'        6.7386    -4.3173   227.7351 O.3       79 DA      0.0000
    456 C2'        4.7671    -5.5180   226.9197 C.3       79 DA      0.0000
    457 C1'        4.2397    -4.0910   226.7365 C.3       79 DA      0.0000
    458 N9         2.7900    -4.1250   226.6421 N.ar      79 DA      0.0000
    459 C8         1.9296    -5.1815   226.5263 C.ar      79 DA      0.0000
    460 N7         0.6489    -4.8585   226.5077 N.ar      79 DA      0.0000
    461 C5         0.6701    -3.4751   226.6153 C.ar      79 DA      0.0000
    462 C6        -0.3664    -2.5099   226.6498 C.ar      79 DA      0.0000
    463 N6        -1.6543    -2.7904   226.5645 N.pl3     79 DA      0.0000
    464 N1         0.0275    -1.2091   226.7823 N.ar      79 DA      0.0000
    465 C2         1.3527    -0.8730   226.8625 C.ar      79 DA      0.0000
    466 N3         2.3795    -1.7192   226.8327 N.ar      79 DA      0.0000
    467 C4         1.9700    -3.0056   226.7097 C.ar      79 DA      0.0000
    468 H5'        7.0842    -5.1706   223.6735 H         79 DA      0.0000
    469 H5''       5.3682    -4.7543   223.4633 H         79 DA      0.0000
    470 H4'        7.0093    -3.7162   225.3410 H         79 DA      0.0000
    471 H3'        6.8713    -6.0765   226.5915 H         79 DA      0.0000
    472 H2'        4.3803    -6.2070   226.1690 H         79 DA      0.0000
    473 H2''       4.5824    -5.8844   227.9296 H         79 DA      0.0000
    474 H1'        4.5040    -3.5194   227.6261 H         79 DA      0.0000
    475 H8         2.2716    -6.2035   226.4553 H         79 DA      0.0000
    476 H2         1.5863     0.1770   226.9590 H         79 DA      0.0000
    477 H61       -2.5011    -2.2701   226.7446 H         79 DA      0.0000
    478 H62       -1.8315    -3.7336   226.2498 H         79 DA      0.0000
    479 P          8.2952    -3.9739   227.8755 P.3       80 DC      0.0000
    480 OP1        9.0700    -4.2393   226.6304 O.co2     80 DC      0.0000
    481 OP2        8.7122    -4.8537   229.0184 O.co2     80 DC      0.0000
    482 O5'        8.3000    -2.4137   228.1587 O.3       80 DC      0.0000
    483 C5'        8.1906    -1.4464   227.0710 C.3       80 DC      0.0000
    484 C4'        7.5109    -0.2671   227.7759 C.3       80 DC      0.0000
    485 O4'        6.1961    -0.6652   228.0879 O.3       80 DC      0.0000
    486 C3'        8.1823     0.1371   229.0858 C.3       80 DC      0.0000
    487 O3'        8.4785     1.5504   229.1537 O.3       80 DC      0.0000
    488 C2'        7.1971    -0.3297   230.1680 C.3       80 DC      0.0000
    489 C1'        5.8930    -0.1972   229.4919 C.3       80 DC      0.0000
    490 N1         4.7609    -1.0500   229.8447 N.am      80 DC      0.0000
    491 C2         3.5165    -0.4232   229.8178 C.2       80 DC      0.0000
    492 O2         3.3844     0.7765   229.6109 O.2       80 DC      0.0000
    493 N3         2.4238    -1.1926   230.0709 N.2       80 DC      0.0000
    494 C4         2.5099    -2.5245   230.3043 C.2       80 DC      0.0000
    495 N4         1.3688    -3.1711   230.5352 N.pl3     80 DC      0.0000
    496 C5         3.7844    -3.1552   230.3108 C.2       80 DC      0.0000
    497 C6         4.8581    -2.3897   230.0614 C.2       80 DC      0.0000
    498 H5'        9.1716    -1.1679   226.6861 H         80 DC      0.0000
    499 H5''       7.5587    -1.8343   226.2720 H         80 DC      0.0000
    500 H4'        7.4810     0.5901   227.1033 H         80 DC      0.0000
    501 H3'        9.1118    -0.4224   229.1917 H         80 DC      0.0000
    502 H2'        7.3884    -1.3637   230.4550 H         80 DC      0.0000
    503 H2''       7.2456     0.3247   231.0383 H         80 DC      0.0000
    504 H1'        5.5836     0.8479   229.4786 H         80 DC      0.0000
    505 H5         3.8846    -4.2121   230.5093 H         80 DC      0.0000
    506 H6         5.8331    -2.8532   230.0317 H         80 DC      0.0000
    507 H41        0.4926    -2.6688   230.5242 H         80 DC      0.0000
    508 H42        1.3796    -4.1638   230.7214 H         80 DC      0.0000
    509 P         -8.4862    -0.1741   232.1133 P.3       80 DG      0.0000
    510 OP1       -9.9680    -0.2714   232.2920 O.co2     80 DG      0.0000
    511 OP2       -7.9542    -1.1012   231.0284 O.co2     80 DG      0.0000
    512 O5'       -8.0640     1.4032   231.9060 O.3       80 DG      0.0000
    513 C5'       -7.3978     2.1141   233.0018 C.3       80 DG      0.0000
    514 C4'       -6.3512     3.0272   232.3675 C.3       80 DG      0.0000
    515 O4'       -5.0995     2.4040   232.2717 O.3       80 DG      0.0000
    516 C3'       -6.7004     3.5069   230.9612 C.3       80 DG      0.0000
    517 O3'       -6.3449     4.8833   230.6942 O.3       80 DG      0.0000
    518 C2'       -5.9166     2.5368   230.0589 C.3       80 DG      0.0000
    519 C1'       -4.6551     2.3389   230.8827 C.3       80 DG      0.0000
    520 N9        -4.0436     1.0271   230.6094 N.ar      80 DG      0.0000
    521 C8        -4.6754    -0.1837   230.4527 C.ar      80 DG      0.0000
    522 N7        -3.8621    -1.1827   230.2343 N.ar      80 DG      0.0000
    523 C5        -2.6032    -0.5939   230.2591 C.ar      80 DG      0.0000
    524 C6        -1.3052    -1.1491   230.1027 C.2       80 DG      0.0000
    525 O6        -1.0289    -2.3410   229.9058 O.2       80 DG      0.0000
    526 N1        -0.2850    -0.2342   230.1896 N.am      80 DG      0.0000
    527 C2        -0.5021     1.0856   230.4103 C.2       80 DG      0.0000
    528 N2         0.5835     1.8517   230.4736 N.pl3     80 DG      0.0000
    529 N3        -1.7016     1.6585   230.5680 N.2       80 DG      0.0000
    530 C4        -2.7022     0.7603   230.4847 C.ar      80 DG      0.0000
    531 H5'       -8.1231     2.7065   233.5596 H         80 DG      0.0000
    532 H5''      -6.9127     1.3996   233.6667 H         80 DG      0.0000
    533 H4'       -6.2413     3.9050   233.0042 H         80 DG      0.0000
    534 H3'       -7.7685     3.3724   230.7907 H         80 DG      0.0000
    535 H2'       -6.4537     1.5991   229.9162 H         80 DG      0.0000
    536 H2''      -5.6848     3.0006   229.1001 H         80 DG      0.0000
    537 H1'       -3.9418     3.1372   230.6775 H         80 DG      0.0000
    538 H8        -5.7479    -0.2989   230.5055 H         80 DG      0.0000
    539 H1         0.6660    -0.5577   230.0848 H         80 DG      0.0000
    540 H21        1.4989     1.4408   230.3585 H         80 DG      0.0000
    541 H22        0.4923     2.8442   230.6368 H         80 DG      0.0000
    542 P         -5.9820     5.2228   229.1707 P.3       79 DT      0.0000
    543 OP1       -6.2757     6.6462   228.7798 O.co2     79 DT      0.0000
    544 OP2       -6.8841     4.2760   228.4702 O.co2     79 DT      0.0000
    545 O5'       -4.4122     4.9294   229.0398 O.3       79 DT      0.0000
    546 C5'       -3.5079     6.0486   229.3074 C.3       79 DT      0.0000
    547 C4'       -2.2189     5.8134   228.5504 C.3       79 DT      0.0000
    548 O4'       -1.8356     4.4501   228.5231 O.3       79 DT      0.0000
    549 C3'       -2.2936     6.2508   227.0957 C.3       79 DT      0.0000
    550 O3'       -1.0799     6.8569   226.6006 O.3       79 DT      0.0000
    551 C2'       -2.6151     4.9616   226.3728 C.3       79 DT      0.0000
    552 C1'       -1.7199     4.0115   227.1509 C.3       79 DT      0.0000
    553 N1        -2.2968     2.6664   226.9996 N.am      79 DT      0.0000
    554 C2        -1.4085     1.6011   227.1064 C.2       79 DT      0.0000
    555 O2        -0.2141     1.8044   227.2961 O.2       79 DT      0.0000
    556 N3        -1.9267     0.3420   226.9862 N.am      79 DT      0.0000
    557 C4        -3.2545     0.1265   226.7687 C.2       79 DT      0.0000
    558 O4        -3.6446    -1.0839   226.6711 O.2       79 DT      0.0000
    559 C5        -4.1395     1.2373   226.6623 C.2       79 DT      0.0000
    560 C7        -5.6065     1.0113   226.4333 C.3       79 DT      0.0000
    561 C6        -3.6279     2.4649   226.7840 C.2       79 DT      0.0000
    562 H5'       -3.9660     6.9797   228.9737 H         79 DT      0.0000
    563 H5''      -3.3003     6.1047   230.3760 H         79 DT      0.0000
    564 H4'       -1.4271     6.3818   229.0383 H         79 DT      0.0000
    565 H3'       -3.1213     6.9492   226.9717 H         79 DT      0.0000
    566 H2'       -3.6681     4.6954   226.4644 H         79 DT      0.0000
    567 H2''      -2.3142     5.0141   225.3264 H         79 DT      0.0000
    568 H1'       -0.6886     4.0502   226.8003 H         79 DT      0.0000
    569 H3        -1.3071    -0.4522   227.0609 H         79 DT      0.0000
    570 H6        -4.2847     3.3189   226.7099 H         79 DT      0.0000
    571 H71       -5.8035    -0.0585   226.3646 H         79 DT      0.0000
    572 H72       -6.1727     1.4321   227.2642 H         79 DT      0.0000
    573 H73       -5.9084     1.4967   225.5052 H         79 DT      0.0000
    574 P         -1.5152     8.2566   225.8222 P.3       78 DG      0.0000
    575 OP1       -1.4417     9.4681   226.6934 O.co2     78 DG      0.0000
    576 OP2       -2.8879     7.8638   225.4166 O.co2     78 DG      0.0000
    577 O5'       -0.3427     8.3650   224.7414 O.3       78 DG      0.0000
    578 C5'        0.9559     8.8522   225.1648 C.3       78 DG      0.0000
    579 C4'        1.9395     7.7783   224.7171 C.3       78 DG      0.0000
    580 O4'        1.4020     6.4992   224.9878 O.3       78 DG      0.0000
    581 C3'        2.2881     7.8235   223.2294 C.3       78 DG      0.0000
    582 O3'        3.6848     7.9331   223.0209 O.3       78 DG      0.0000
    583 C2'        1.6365     6.5793   222.6527 C.3       78 DG      0.0000
    584 C1'        1.5931     5.6451   223.8388 C.3       78 DG      0.0000
    585 N9         0.4861     4.6930   223.7152 N.ar      78 DG      0.0000
    586 C8        -0.8450     4.9560   223.5564 C.ar      78 DG      0.0000
    587 N7        -1.5898     3.8802   223.4783 N.ar      78 DG      0.0000
    588 C5        -0.6848     2.8318   223.6158 C.ar      78 DG      0.0000
    589 C6        -0.8618     1.4230   223.6253 C.2       78 DG      0.0000
    590 O6        -1.9190     0.8086   223.5262 O.2       78 DG      0.0000
    591 N1         0.2915     0.7063   223.7743 N.am      78 DG      0.0000
    592 C2         1.5167     1.3138   223.9072 C.2       78 DG      0.0000
    593 N2         2.5607     0.4957   224.0428 N.pl3     78 DG      0.0000
    594 N3         1.7521     2.6298   223.9114 N.2       78 DG      0.0000
    595 C4         0.6001     3.3269   223.7607 C.ar      78 DG      0.0000
    596 H5'        1.1833     9.8046   224.6861 H         78 DG      0.0000
    597 H5''       0.9829     8.9595   226.2492 H         78 DG      0.0000
    598 H4'        2.8595     7.8936   225.2901 H         78 DG      0.0000
    599 H3'        1.8065     8.6974   222.7908 H         78 DG      0.0000
    600 H2'        0.6330     6.7955   222.2863 H         78 DG      0.0000
    601 H2''       2.2518     6.1590   221.8571 H         78 DG      0.0000
    602 H1'        2.5382     5.1089   223.9258 H         78 DG      0.0000
    603 H8        -1.2464     5.9571   223.5003 H         78 DG      0.0000
    604 H1         0.2420    -0.3024   223.7871 H         78 DG      0.0000
    605 H21        2.4216    -0.5047   224.0438 H         78 DG      0.0000
    606 H22        3.4906     0.8763   224.1446 H         78 DG      0.0000
    607 P          4.7513     7.1526   222.1546 P.3       77 DA      0.0000
    608 OP1        6.0635     7.0093   222.9359 O.co2     77 DA      0.0000
    609 OP2        4.9536     7.9783   220.9619 O.co2     77 DA      0.0000
    610 O5'        4.1753     5.6387   221.9798 O.3       77 DA      0.0000
    611 C5'        4.5223     4.7881   223.1362 C.3       77 DA      0.0000
    612 C4'        5.4021     3.6819   222.6084 C.3       77 DA      0.0000
    613 O4'        4.6921     2.4900   222.3861 O.3       77 DA      0.0000
    614 C3'        6.0508     4.0250   221.2679 C.3       77 DA      0.0000
    615 O3'        7.3917     3.6037   221.1927 O.3       77 DA      0.0000
    616 C2'        5.0688     3.4356   220.2713 C.3       77 DA      0.0000
    617 C1'        4.3308     2.3443   220.9952 C.3       77 DA      0.0000
    618 N9         2.8777     2.4284   220.7697 N.ar      77 DA      0.0000
    619 C8         2.0933     3.5461   220.5833 C.ar      77 DA      0.0000
    620 N7         0.8207     3.2881   220.3874 N.ar      77 DA      0.0000
    621 C5         0.7601     1.9028   220.4743 C.ar      77 DA      0.0000
    622 C6        -0.3280     1.0054   220.3686 C.ar      77 DA      0.0000
    623 N6        -1.5759     1.3843   220.1562 N.pl3     77 DA      0.0000
    624 N1        -0.0276    -0.3170   220.4924 N.ar      77 DA      0.0000
    625 C2         1.2524    -0.7373   220.7169 C.ar      77 DA      0.0000
    626 N3         2.3175     0.0532   220.8328 N.ar      77 DA      0.0000
    627 C4         2.0064     1.3649   220.6967 C.ar      77 DA      0.0000
    628 H5'        5.0594     5.3712   223.8843 H         77 DA      0.0000
    629 H5''       3.6169     4.3666   223.5729 H         77 DA      0.0000
    630 H4'        6.1899     3.4870   223.3361 H         77 DA      0.0000
    631 H3'        6.0331     5.1090   221.1548 H         77 DA      0.0000
    632 H2'        5.6027     3.0249   219.4145 H         77 DA      0.0000
    633 H2''       4.3685     4.2027   219.9408 H         77 DA      0.0000
    634 H1'        4.6882     1.3789   220.6370 H         77 DA      0.0000
    635 H8         2.4917     4.5498   220.5972 H         77 DA      0.0000
    636 H2         1.4143    -1.8011   220.8081 H         77 DA      0.0000
    637 H61       -2.3536     0.8222   220.4716 H         77 DA      0.0000
    638 H62       -1.7553     2.2512   219.6699 H         77 DA      0.0000
    639 P          8.2246     2.9713   220.0081 P.3       76 DA      0.0000
    640 OP1        9.5903     2.4352   220.5280 O.co2     76 DA      0.0000
    641 OP2        8.4743     4.1134   219.0745 O.co2     76 DA      0.0000
    642 O5'        7.4386     1.7019   219.5054 O.3       76 DA      0.0000
    643 C5'        7.8239     0.3885   219.9613 C.3       76 DA      0.0000
    644 C4'        6.9234    -0.6045   219.2593 C.3       76 DA      0.0000
    645 O4'        5.5927    -0.1894   219.1386 O.3       76 DA      0.0000
    646 C3'        7.3956    -0.9662   217.8518 C.3       76 DA      0.0000
    647 O3'        7.7923    -2.3502   217.8204 O.3       76 DA      0.0000
    648 C2'        6.2416    -0.5198   216.9523 C.3       76 DA      0.0000
    649 C1'        5.0463    -0.6254   217.8500 C.3       76 DA      0.0000
    650 N9         3.9268     0.2612   217.5505 N.ar      76 DA      0.0000
    651 C8         3.9224     1.6270   217.3557 C.ar      76 DA      0.0000
    652 N7         2.7254     2.1295   217.1503 N.ar      76 DA      0.0000
    653 C5         1.8831     1.0373   217.2248 C.ar      76 DA      0.0000
    654 C6         0.4817     0.9159   217.0913 C.ar      76 DA      0.0000
    655 N6        -0.3305     1.9400   216.8481 N.pl3     76 DA      0.0000
    656 N1        -0.0111    -0.3557   217.2402 N.ar      76 DA      0.0000
    657 C2         0.7863    -1.4114   217.4927 C.ar      76 DA      0.0000
    658 N3         2.1150    -1.3725   217.6315 N.ar      76 DA      0.0000
    659 C4         2.5976    -0.1185   217.4843 C.ar      76 DA      0.0000
    660 H5'        8.8657     0.1944   219.7061 H         76 DA      0.0000
    661 H5''       7.6866     0.3154   221.0401 H         76 DA      0.0000
    662 H4'        6.9265    -1.5209   219.8495 H         76 DA      0.0000
    663 H3'        8.2675    -0.3557   217.6168 H         76 DA      0.0000
    664 H2'        6.3854     0.5059   216.6124 H         76 DA      0.0000
    665 H2''       6.1396    -1.1928   216.1009 H         76 DA      0.0000
    666 H1'        4.7067    -1.6594   217.9111 H         76 DA      0.0000
    667 H8         4.8197     2.2278   217.3707 H         76 DA      0.0000
    668 H2         0.3095    -2.3753   217.5917 H         76 DA      0.0000
    669 H61       -1.2881     1.8106   217.1422 H         76 DA      0.0000
    670 H62       -0.0123     2.7878   216.4009 H         76 DA      0.0000
    671 P          8.3199    -2.9791   216.4354 P.3       75 DT      0.0000
    672 OP1        9.0171    -4.3034   216.4935 O.co2     75 DT      0.0000
    673 OP2        9.1448    -1.8426   215.9228 O.co2     75 DT      0.0000
    674 O5'        6.8358    -3.2631   215.7323 O.3       75 DT      0.0000
    675 C5'        5.9279    -3.7939   216.7446 C.3       75 DT      0.0000
    676 C4'        4.8271    -4.5406   216.0616 C.3       75 DT      0.0000
    677 O4'        3.6675    -3.7840   215.8812 O.3       75 DT      0.0000
    678 C3'        5.2072    -5.1023   214.7004 C.3       75 DT      0.0000
    679 O3'        4.6163    -6.3800   214.4331 O.3       75 DT      0.0000
    680 C2'        4.7150    -3.9562   213.8070 C.3       75 DT      0.0000
    681 C1'        3.3856    -3.6181   214.4471 C.3       75 DT      0.0000
    682 N1         3.0247    -2.2065   214.2171 N.am      75 DT      0.0000
    683 C2         1.6803    -1.9022   214.0955 C.2       75 DT      0.0000
    684 O2         0.8215    -2.7848   214.1323 O.2       75 DT      0.0000
    685 N3         1.3317    -0.5894   213.9281 N.am      75 DT      0.0000
    686 C4         2.2622     0.4013   213.8795 C.2       75 DT      0.0000
    687 O4         1.8510     1.5855   213.6940 O.2       75 DT      0.0000
    688 C5         3.6380     0.0693   214.0279 C.2       75 DT      0.0000
    689 C7         4.6989     1.1428   213.9758 C.3       75 DT      0.0000
    690 C6         3.9616    -1.2165   214.2009 C.2       75 DT      0.0000
    691 H5'        6.4716    -4.4678   217.4067 H         75 DT      0.0000
    692 H5''       5.5072    -2.9725   217.3246 H         75 DT      0.0000
    693 H4'        4.5659    -5.3857   216.6987 H         75 DT      0.0000
    694 H3'        6.2920    -5.1803   214.6284 H         75 DT      0.0000
    695 H2'        5.3980    -3.1072   213.8376 H         75 DT      0.0000
    696 H2''       4.5732    -4.2999   212.7824 H         75 DT      0.0000
    697 H1'        2.5971    -4.2927   214.1131 H         75 DT      0.0000
    698 H3         0.3548    -0.3493   213.8379 H         75 DT      0.0000
    699 H6         5.0008    -1.4797   214.3323 H         75 DT      0.0000
    700 H71        5.1175     1.1921   212.9707 H         75 DT      0.0000
    701 H72        5.4900     0.9061   214.6874 H         75 DT      0.0000
    702 H73        4.2553     2.1048   214.2324 H         75 DT      0.0000
    703 P          4.8989    -6.9922   212.9432 P.3       74 DT      0.0000
    704 OP1        5.7574    -8.2497   213.0912 O.co2     74 DT      0.0000
    705 OP2        5.6975    -5.9109   212.2734 O.co2     74 DT      0.0000
    706 O5'        3.5253    -7.2932   212.2911 O.3       74 DT      0.0000
    707 C5'        2.3649    -7.6497   213.0425 C.3       74 DT      0.0000
    708 C4'        1.1592    -7.1784   212.2945 C.3       74 DT      0.0000
    709 O4'        0.9041    -5.8009   212.2376 O.3       74 DT      0.0000
    710 C3'        1.0057    -7.6381   210.8285 C.3       74 DT      0.0000
    711 O3'       -0.4143    -7.7804   210.7247 O.3       74 DT      0.0000
    712 C2'        1.5191    -6.4103   210.0647 C.3       74 DT      0.0000
    713 C1'        0.7389    -5.3687   210.8405 C.3       74 DT      0.0000
    714 N1         1.2296    -3.9917   210.7343 N.am      74 DT      0.0000
    715 C2         0.2397    -2.9997   210.7337 C.2       74 DT      0.0000
    716 O2        -0.9565    -3.2945   210.7767 O.2       74 DT      0.0000
    717 N3         0.6610    -1.7022   210.6802 N.am      74 DT      0.0000
    718 C4         1.9782    -1.3558   210.6205 C.2       74 DT      0.0000
    719 O4         2.2675    -0.1230   210.5581 O.2       74 DT      0.0000
    720 C5         2.9616    -2.3823   210.6287 C.2       74 DT      0.0000
    721 C7         4.4287    -2.0118   210.5673 C.3       74 DT      0.0000
    722 C6         2.5450    -3.6501   210.6952 C.2       74 DT      0.0000
    723 H5'        2.3230    -8.7320   213.1647 H         74 DT      0.0000
    724 H5''       2.4000    -7.1709   214.0211 H         74 DT      0.0000
    725 H4'        0.3072    -7.6076   212.8218 H         74 DT      0.0000
    726 H3'        1.5526    -8.5528   210.5998 H         74 DT      0.0000
    727 H2'        1.2482    -6.4330   209.0092 H         74 DT      0.0000
    728 H2''       2.5933    -6.2813   210.1963 H         74 DT      0.0000
    729 H1'       -0.3140    -5.4099   210.5614 H         74 DT      0.0000
    730 H3        -0.0324    -0.9679   210.6851 H         74 DT      0.0000
    731 H6         3.2845    -4.4369   210.7189 H         74 DT      0.0000
    732 H71        4.5285    -0.9274   210.5185 H         74 DT      0.0000
    733 H72        4.8791    -2.4581   209.6807 H         74 DT      0.0000
    734 H73        4.9349    -2.3834   211.4582 H         74 DT      0.0000
    735 P         -1.1992    -8.4736   209.5785 P.3       73 DC      0.0000
    736 OP1       -2.2178    -9.4388   210.1876 O.co2     73 DC      0.0000
    737 OP2       -0.1819    -9.2438   208.7967 O.co2     73 DC      0.0000
    738 O5'       -1.8751    -7.1888   208.8391 O.3       73 DC      0.0000
    739 C5'       -2.9920    -6.5763   209.5636 C.3       73 DC      0.0000
    740 C4'       -3.9495    -6.0768   208.5131 C.3       73 DC      0.0000
    741 O4'       -3.8006    -4.6977   208.2678 O.3       73 DC      0.0000
    742 C3'       -3.8345    -6.7586   207.1487 C.3       73 DC      0.0000
    743 O3'       -5.0690    -6.8848   206.4394 O.3       73 DC      0.0000
    744 C2'       -2.8047    -5.8505   206.4625 C.3       73 DC      0.0000
    745 C1'       -3.1667    -4.4709   207.0091 C.3       73 DC      0.0000
    746 N1        -1.9165    -3.6842   207.1269 N.am      73 DC      0.0000
    747 C2        -2.0408    -2.2957   207.1442 C.2       73 DC      0.0000
    748 O2        -3.1513    -1.7513   207.0755 O.2       73 DC      0.0000
    749 N3        -0.8882    -1.5648   207.2474 N.2       73 DC      0.0000
    750 C4         0.3353    -2.1515   207.3181 C.2       73 DC      0.0000
    751 N4         1.4307    -1.3956   207.4201 N.pl3     73 DC      0.0000
    752 C5         0.4341    -3.5707   207.2930 C.2       73 DC      0.0000
    753 C6        -0.6987    -4.2879   207.1994 C.2       73 DC      0.0000
    754 H5'       -3.4802    -7.3147   210.1996 H         73 DC      0.0000
    755 H5''      -2.6327    -5.7430   210.1675 H         73 DC      0.0000
    756 H4'       -4.9620    -6.2409   208.8819 H         73 DC      0.0000
    757 H3'       -3.4000    -7.7491   207.2828 H         73 DC      0.0000
    758 H2'       -2.9097    -5.8847   205.3782 H         73 DC      0.0000
    759 H2''      -1.7926    -6.1266   206.7585 H         73 DC      0.0000
    760 H1'       -3.8574    -3.9715   206.3297 H         73 DC      0.0000
    761 H5         1.3956    -4.0595   207.3478 H         73 DC      0.0000
    762 H6        -0.6415    -5.3663   207.1813 H         73 DC      0.0000
    763 H41        1.3495    -0.3890   207.4408 H         73 DC      0.0000
    764 H42        2.3407    -1.8301   207.4765 H         73 DC      0.0000
    765 P         -5.2624    -6.7534   204.8074 P.3       72 DA      0.0000
    766 OP1       -6.5253    -7.4908   204.4179 O.co2     72 DA      0.0000
    767 OP2       -4.0087    -7.3173   204.2373 O.co2     72 DA      0.0000
    768 O5'       -5.5292    -5.1881   204.6418 O.3       72 DA      0.0000
    769 C5'       -6.8296    -4.6551   205.1073 C.3       72 DA      0.0000
    770 C4'       -6.9924    -3.4255   204.2300 C.3       72 DA      0.0000
    771 O4'       -5.9341    -2.4965   204.4973 O.3       72 DA      0.0000
    772 C3'       -6.8726    -3.7275   202.7256 C.3       72 DA      0.0000
    773 O3'       -7.3918    -2.6690   201.9365 O.3       72 DA      0.0000
    774 C2'       -5.3457    -3.6622   202.5381 C.3       72 DA      0.0000
    775 C1'       -5.1776    -2.3151   203.2928 C.3       72 DA      0.0000
    776 N9        -3.7343    -2.1557   203.4382 N.ar      72 DA      0.0000
    777 C8        -2.8023    -3.1667   203.5111 C.ar      72 DA      0.0000
    778 N7        -1.5724    -2.7323   203.6257 N.ar      72 DA      0.0000
    779 C5        -1.7152    -1.3332   203.6193 C.ar      72 DA      0.0000
    780 C6        -0.7464    -0.2971   203.7193 C.ar      72 DA      0.0000
    781 N6         0.5660    -0.5160   203.8421 N.pl3     72 DA      0.0000
    782 N1        -1.2639     0.9627   203.6841 N.ar      72 DA      0.0000
    783 C2        -2.5957     1.1854   203.5652 C.ar      72 DA      0.0000
    784 N3        -3.5579     0.2629   203.4738 N.ar      72 DA      0.0000
    785 C4        -3.0355    -0.9756   203.5013 C.ar      72 DA      0.0000
    786 H5'       -7.6345    -5.3709   204.9405 H         72 DA      0.0000
    787 H5''      -6.7762    -4.3736   206.1589 H         72 DA      0.0000
    788 H4'       -7.9539    -2.9545   204.4340 H         72 DA      0.0000
    789 H3'       -7.2893    -4.6980   202.4560 H         72 DA      0.0000
    790 H2'       -4.8221    -4.4880   203.0198 H         72 DA      0.0000
    791 H2''      -5.0728    -3.5713   201.4868 H         72 DA      0.0000
    792 H1'       -5.5921    -1.4966   202.7044 H         72 DA      0.0000
    793 H8        -3.0604    -4.2149   203.4770 H         72 DA      0.0000
    794 H2        -2.9125     2.2176   203.5420 H         72 DA      0.0000
    795 H61        0.9200    -1.4616   203.8668 H         72 DA      0.0000
    796 H62        1.2039     0.2640   203.9102 H         72 DA      0.0000
    797 P         -8.4587    -2.9547   200.7956 P.3       71 DC      0.0000
    798 OP1       -9.7624    -2.9867   201.5759 O.co2     71 DC      0.0000
    799 OP2       -8.1913    -4.2016   200.0700 O.co2     71 DC      0.0000
    800 O5'       -8.2141    -1.6538   199.8197 O.3       71 DC      0.0000
    801 C5'       -8.2601    -0.3359   200.4888 C.3       71 DC      0.0000
    802 C4'       -7.2378     0.5630   199.8447 C.3       71 DC      0.0000
    803 O4'       -5.9665     0.5343   200.4819 O.3       71 DC      0.0000
    804 C3'       -6.9848     0.2191   198.3669 C.3       71 DC      0.0000
    805 O3'       -6.6802     1.3467   197.5556 O.3       71 DC      0.0000
    806 C2'       -5.6976    -0.6535   198.5326 C.3       71 DC      0.0000
    807 C1'       -4.9865     0.4268   199.4282 C.3       71 DC      0.0000
    808 N1        -3.6458    -0.0404   199.6660 N.am      71 DC      0.0000
    809 C2        -2.6689     0.8894   199.9832 C.2       71 DC      0.0000
    810 O2        -2.7602     2.1142   200.1237 O.2       71 DC      0.0000
    811 N3        -1.3936     0.4378   200.1814 N.2       71 DC      0.0000
    812 C4        -1.0674    -0.8854   200.0654 C.2       71 DC      0.0000
    813 N4         0.1961    -1.2834   200.2815 N.pl3     71 DC      0.0000
    814 C5        -2.0805    -1.8276   199.7358 C.2       71 DC      0.0000
    815 C6        -3.3201    -1.3616   199.5441 C.2       71 DC      0.0000
    816 H5'       -9.2537     0.0984   200.3773 H         71 DC      0.0000
    817 H5''      -8.0288    -0.4542   201.5474 H         71 DC      0.0000
    818 H4'       -7.6133     1.5852   199.8915 H         71 DC      0.0000
    819 H3'       -7.8068    -0.3613   197.9479 H         71 DC      0.0000
    820 H2'       -5.8762    -1.5962   199.0497 H         71 DC      0.0000
    821 H2''      -5.1805    -0.8007   197.5843 H         71 DC      0.0000
    822 H1'       -4.9440     1.3699   198.8832 H         71 DC      0.0000
    823 H5        -1.8575    -2.8804   199.6437 H         71 DC      0.0000
    824 H6        -4.0988    -2.0621   199.2808 H         71 DC      0.0000
    825 H41        0.9050    -0.6054   200.5220 H         71 DC      0.0000
    826 H42        0.4380    -2.2609   200.2036 H         71 DC      0.0000
    827 P          9.2943     3.7413   234.1548 P.3       81 DG      0.0000
    828 OP1       10.7687     3.5742   234.1532 O.co2     81 DG      0.0000
    829 OP2        8.7398     2.7737   235.2105 O.co2     81 DG      0.0000
    830 O5'        8.7389     5.2216   234.3332 O.3       81 DG      0.0000
    831 C5'        8.2195     6.1236   233.3332 C.3       81 DG      0.0000
    832 C4'        6.8980     6.6699   233.8320 C.3       81 DG      0.0000
    833 O4'        5.8055     5.8810   233.4128 O.3       81 DG      0.0000
    834 C3'        6.7347     6.8771   235.3242 C.3       81 DG      0.0000
    835 O3'        6.3299     8.2373   235.6362 O.3       81 DG      0.0000
    836 C2'        5.7156     5.8357   235.7461 C.3       81 DG      0.0000
    837 C1'        4.9123     5.5973   234.4904 C.3       81 DG      0.0000
    838 N9         4.4206     4.2078   234.4614 N.ar      81 DG      0.0000
    839 C8         5.1029     3.0363   234.6902 C.ar      81 DG      0.0000
    840 N7         4.3599     1.9563   234.6005 N.ar      81 DG      0.0000
    841 C5         3.0966     2.4488   234.2835 C.ar      81 DG      0.0000
    842 C6         1.8590     1.7974   234.0576 C.2       81 DG      0.0000
    843 O6         1.6180     0.5900   234.0789 O.2       81 DG      0.0000
    844 N1         0.8076     2.6260   233.7761 N.am      81 DG      0.0000
    845 C2         0.9204     3.9143   233.7154 C.2       81 DG      0.0000
    846 N2        -0.2010     4.4468   233.4187 N.pl3     81 DG      0.0000
    847 N3         2.0931     4.6471   233.9242 N.2       81 DG      0.0000
    848 C4         3.1192     3.8282   234.1968 C.ar      81 DG      0.0000
    849 H5'        8.9212     6.9425   233.1745 H         81 DG      0.0000
    850 H5''       8.0651     5.5857   232.3978 H         81 DG      0.0000
    851 H4'        6.7712     7.6476   233.3673 H         81 DG      0.0000
    852 H3'        7.6833     6.6665   235.8181 H         81 DG      0.0000
    853 H2'        6.2076     4.9198   236.0731 H         81 DG      0.0000
    854 H2''       5.0767     6.2276   236.5376 H         81 DG      0.0000
    855 H1'        4.0681     6.2861   234.4585 H         81 DG      0.0000
    856 H8         6.1570     3.0065   234.9233 H         81 DG      0.0000
    857 H1        -0.0989     2.2136   233.6077 H         81 DG      0.0000
    858 H21       -1.0138     3.8650   233.2743 H         81 DG      0.0000
    859 H22       -0.2755     5.4499   233.3282 H         81 DG      0.0000
    860 P          5.8128     8.6667   237.0647 P.3       82 DT      0.0000
    861 OP1        6.2938     9.9998   237.5764 O.co2     82 DT      0.0000
    862 OP2        6.4842     7.6297   237.9834 O.co2     82 DT      0.0000
    863 O5'        4.2777     8.4528   237.0933 O.3       82 DT      0.0000
    864 C5'        3.3214     9.5387   236.9493 C.3       82 DT      0.0000
    865 C4'        1.9667     8.8644   237.0068 C.3       82 DT      0.0000
    866 O4'        2.0467     7.4831   236.7317 O.3       82 DT      0.0000
    867 C3'        1.2299     8.9505   238.3195 C.3       82 DT      0.0000
    868 O3'        0.0382     9.7276   238.1313 O.3       82 DT      0.0000
    869 C2'        0.9049     7.5093   238.7118 C.3       82 DT      0.0000
    870 C1'        0.8957     6.8462   237.3590 C.3       82 DT      0.0000
    871 N1         1.1869     5.4157   237.4557 N.am      82 DT      0.0000
    872 C2         0.1487     4.5463   237.2577 C.2       82 DT      0.0000
    873 O2        -0.9950     4.9276   237.0196 O.2       82 DT      0.0000
    874 N3         0.4310     3.2092   237.3388 N.am      82 DT      0.0000
    875 C4         1.6709     2.7340   237.5947 C.2       82 DT      0.0000
    876 O4         1.7762     1.4804   237.6400 O.2       82 DT      0.0000
    877 C5         2.7456     3.6590   237.7944 C.2       82 DT      0.0000
    878 C7         4.1312     3.1749   238.0743 C.3       82 DT      0.0000
    879 C6         2.4603     4.9649   237.7129 C.2       82 DT      0.0000
    880 H5'        3.4289    10.2562   237.7627 H         82 DT      0.0000
    881 H5''       3.4556    10.0349   235.9881 H         82 DT      0.0000
    882 H4'        1.3369     9.3191   236.2423 H         82 DT      0.0000
    883 H3'        1.8639     9.4120   239.0766 H         82 DT      0.0000
    884 H2'        1.6723     7.0871   239.3606 H         82 DT      0.0000
    885 H2''      -0.0770     7.4471   239.1810 H         82 DT      0.0000
    886 H1'       -0.0279     7.0404   236.8137 H         82 DT      0.0000
    887 H3        -0.3202     2.5483   237.2013 H         82 DT      0.0000
    888 H6         3.2531     5.6847   237.8533 H         82 DT      0.0000
    889 H71        4.7331     3.2511   237.1688 H         82 DT      0.0000
    890 H72        4.0939     2.1352   238.3991 H         82 DT      0.0000
    891 H73        4.5775     3.7851   238.8596 H         82 DT      0.0000
    892 P         -0.3186    10.6660   239.4113 P.3       83 DG      0.0000
    893 OP1       -0.8688    11.8935   238.6962 O.co2     83 DG      0.0000
    894 OP2        0.8971    10.9161   240.1648 O.co2     83 DG      0.0000
    895 O5'       -1.4680     9.6803   240.0208 O.3       83 DG      0.0000
    896 C5'       -2.3613     9.2376   238.9302 C.3       83 DG      0.0000
    897 C4'       -3.1815     8.0940   239.4502 C.3       83 DG      0.0000
    898 O4'       -2.6500     6.8087   239.2697 O.3       83 DG      0.0000
    899 C3'       -3.5035     8.2341   240.9583 C.3       83 DG      0.0000
    900 O3'       -4.9399     8.1398   241.1171 O.3       83 DG      0.0000
    901 C2'       -2.6810     7.1435   241.6109 C.3       83 DG      0.0000
    902 C1'       -2.6753     6.0695   240.5293 C.3       83 DG      0.0000
    903 N9        -1.5474     5.1467   240.6988 N.ar      83 DG      0.0000
    904 C8        -0.2526     5.4309   241.0350 C.ar      83 DG      0.0000
    905 N7         0.5344     4.3811   241.1208 N.ar      83 DG      0.0000
    906 C5        -0.3145     3.3271   240.7908 C.ar      83 DG      0.0000
    907 C6        -0.0685     1.9274   240.6964 C.2       83 DG      0.0000
    908 O6         0.9965     1.3221   240.8887 O.2       83 DG      0.0000
    909 N1        -1.1725     1.1773   240.3614 N.am      83 DG      0.0000
    910 C2        -2.3892     1.7461   240.1376 C.2       83 DG      0.0000
    911 N2        -3.3482     0.8635   239.8288 N.pl3     83 DG      0.0000
    912 N3        -2.6681     3.0457   240.2086 N.2       83 DG      0.0000
    913 C4        -1.5909     3.7803   240.5352 C.ar      83 DG      0.0000
    914 H5'       -3.0146    10.0568   238.6297 H         83 DG      0.0000
    915 H5''      -1.7674     8.9079   238.0778 H         83 DG      0.0000
    916 H4'       -4.1333     8.1202   238.9197 H         83 DG      0.0000
    917 H3'       -3.1626     9.2067   241.3130 H         83 DG      0.0000
    918 H2'       -1.6711     7.4877   241.8338 H         83 DG      0.0000
    919 H2''      -3.1717     6.7788   242.5133 H         83 DG      0.0000
    920 H1'       -3.6056     5.5045   240.5882 H         83 DG      0.0000
    921 H8         0.0957     6.4371   241.2157 H         83 DG      0.0000
    922 H1        -1.0774     0.1752   240.2790 H         83 DG      0.0000
    923 H21       -3.1309    -0.1216   239.7786 H         83 DG      0.0000
    924 H22       -4.2888     1.1830   239.6461 H         83 DG      0.0000
    925 P         -5.6254     8.3544   242.5056 P.3       84 DA      0.0000
    926 OP1       -6.0054     9.7553   242.8609 O.co2     84 DA      0.0000
    927 OP2       -4.3957     7.9551   243.4013 O.co2     84 DA      0.0000
    928 O5'       -6.6730     7.1903   242.7547 O.3       84 DA      0.0000
    929 C5'       -7.2940     6.4060   241.7256 C.3       84 DA      0.0000
    930 C4'       -7.1872     4.9657   242.2000 C.3       84 DA      0.0000
    931 O4'       -5.8522     4.5161   242.1096 O.3       84 DA      0.0000
    932 C3'       -7.6537     4.6877   243.6290 C.3       84 DA      0.0000
    933 O3'       -8.5140     3.5309   243.6813 O.3       84 DA      0.0000
    934 C2'       -6.3242     4.4793   244.3644 C.3       84 DA      0.0000
    935 C1'       -5.5683     3.7168   243.2869 C.3       84 DA      0.0000
    936 N9        -4.1214     3.6491   243.5153 N.ar      84 DA      0.0000
    937 C8        -3.2186     4.6514   243.7310 C.ar      84 DA      0.0000
    938 N7        -1.9844     4.2304   243.8960 N.ar      84 DA      0.0000
    939 C5        -2.0810     2.8540   243.7558 C.ar      84 DA      0.0000
    940 C6        -1.1021     1.8375   243.8038 C.ar      84 DA      0.0000
    941 N6         0.1975     2.0508   244.0235 N.pl3     84 DA      0.0000
    942 N1        -1.5705     0.5682   243.6139 N.ar      84 DA      0.0000
    943 C2        -2.8845     0.3296   243.3962 C.ar      84 DA      0.0000
    944 N3        -3.8608     1.2345   243.3379 N.ar      84 DA      0.0000
    945 C4        -3.3817     2.4778   243.5248 C.ar      84 DA      0.0000
    946 H5'       -6.7704     6.5357   240.7784 H         84 DA      0.0000
    947 H5''      -8.3411     6.6892   241.6178 H         84 DA      0.0000
    948 H4'       -7.7891     4.3515   241.5302 H         84 DA      0.0000
    949 H3'       -8.1717     5.5587   244.0304 H         84 DA      0.0000
    950 H2'       -5.8412     5.4250   244.6099 H         84 DA      0.0000
    951 H2''      -6.4611     3.8663   245.2553 H         84 DA      0.0000
    952 H1'       -5.9807     2.7144   243.1723 H         84 DA      0.0000
    953 H8        -3.4941     5.6952   243.7631 H         84 DA      0.0000
    954 H2        -3.1719    -0.7019   243.2548 H         84 DA      0.0000
    955 H61        0.6623     2.9422   243.9261 H         84 DA      0.0000
    956 H62        0.8431     1.2932   243.8520 H         84 DA      0.0000
    957 P         -9.6821     3.3551   244.8227 P.3       85 DA      0.0000
    958 OP1      -11.0330     3.2809   244.1557 O.co2     85 DA      0.0000
    959 OP2       -9.4511     4.5543   245.6537 O.co2     85 DA      0.0000
    960 O5'       -9.4242     1.8730   245.3536 O.3       85 DA      0.0000
    961 C5'       -9.5167     0.7123   244.5292 C.3       85 DA      0.0000
    962 C4'       -8.5303    -0.3174   245.0515 C.3       85 DA      0.0000
    963 O4'       -7.2283     0.1955   245.0797 O.3       85 DA      0.0000
    964 C3'       -8.8048    -0.9192   246.4189 C.3       85 DA      0.0000
    965 O3'       -9.0516    -2.3230   246.3410 O.3       85 DA      0.0000
    966 C2'       -7.5783    -0.5178   247.2476 C.3       85 DA      0.0000
    967 C1'       -6.5049    -0.2971   246.2538 C.3       85 DA      0.0000
    968 N9        -5.4280     0.6732   246.5218 N.ar      85 DA      0.0000
    969 C8        -5.4800     2.0412   246.6370 C.ar      85 DA      0.0000
    970 N7        -4.3101     2.6105   246.8063 N.ar      85 DA      0.0000
    971 C5        -3.4150     1.5461   246.7693 C.ar      85 DA      0.0000
    972 C6        -1.9970     1.4957   246.8898 C.ar      85 DA      0.0000
    973 N6        -1.2026     2.5415   247.0814 N.pl3     85 DA      0.0000
    974 N1        -1.4377     0.2463   246.7916 N.ar      85 DA      0.0000
    975 C2        -2.2230    -0.8537   246.6025 C.ar      85 DA      0.0000
    976 N3        -3.5466    -0.8774   246.4947 N.ar      85 DA      0.0000
    977 C4        -4.0816     0.3567   246.5865 C.ar      85 DA      0.0000
    978 H5'       -9.2705     0.9703   243.4992 H         85 DA      0.0000
    979 H5''     -10.5282     0.3086   244.5752 H         85 DA      0.0000
    980 H4'       -8.5287    -1.1421   244.3388 H         85 DA      0.0000
    981 H3'       -9.6844    -0.4343   246.8421 H         85 DA      0.0000
    982 H2'       -7.7762     0.3960   247.8079 H         85 DA      0.0000
    983 H2''      -7.3025    -1.3242   247.9272 H         85 DA      0.0000
    984 H1'       -6.0545    -1.2587   246.0077 H         85 DA      0.0000
    985 H8        -6.4034     2.5994   246.5922 H         85 DA      0.0000
    986 H2        -1.7152    -1.8043   246.5333 H         85 DA      0.0000
    987 H61       -1.5522     3.4312   247.4076 H         85 DA      0.0000
    988 H62       -0.2148     2.4443   246.8946 H         85 DA      0.0000
    989 P        -10.0674    -3.1585   247.2972 P.3       86 DT      0.0000
    990 OP1      -10.8779    -4.1742   246.4999 O.co2     86 DT      0.0000
    991 OP2      -10.8525    -2.2604   248.1178 O.co2     86 DT      0.0000
    992 O5'       -9.0245    -4.1359   248.1110 O.3       86 DT      0.0000
    993 C5'       -7.9800    -4.6262   247.1659 C.3       86 DT      0.0000
    994 C4'       -6.6970    -4.5461   247.9536 C.3       86 DT      0.0000
    995 O4'       -6.2316    -3.2291   248.1456 O.3       86 DT      0.0000
    996 C3'       -6.8463    -5.1311   249.3702 C.3       86 DT      0.0000
    997 O3'       -6.3619    -6.4613   249.3718 O.3       86 DT      0.0000
    998 C2'       -6.0752    -4.1661   250.2674 C.3       86 DT      0.0000
    999 C1'       -5.2964    -3.3642   249.3028 C.3       86 DT      0.0000
   1000 N1        -4.8571    -2.0201   249.6426 N.am      86 DT      0.0000
   1001 C2        -3.4867    -1.8230   249.7805 C.2       86 DT      0.0000
   1002 O2        -2.7227    -2.7756   249.6925 O.2       86 DT      0.0000
   1003 N3        -3.0399    -0.5615   250.0345 N.am      86 DT      0.0000
   1004 C4        -3.8799     0.5084   250.1546 C.2       86 DT      0.0000
   1005 O4        -3.3862     1.6530   250.4098 O.2       86 DT      0.0000
   1006 C5        -5.2858     0.2851   249.9831 C.2       86 DT      0.0000
   1007 C7        -6.2525     1.4334   250.0706 C.3       86 DT      0.0000
   1008 C6        -5.7210    -0.9607   249.7273 C.2       86 DT      0.0000
   1009 H5'       -8.1841    -5.6536   246.8642 H         86 DT      0.0000
   1010 H5''      -7.9276    -3.9784   246.2908 H         86 DT      0.0000
   1011 H4'       -5.9296    -5.1111   247.4244 H         86 DT      0.0000
   1012 H3'       -7.8985    -5.1281   249.6545 H         86 DT      0.0000
   1013 H2'       -6.7555    -3.5365   250.8408 H         86 DT      0.0000
   1014 H2''      -5.4091    -4.7141   250.9338 H         86 DT      0.0000
   1015 H1'       -4.4302    -3.9446   248.9855 H         86 DT      0.0000
   1016 H3        -2.0465    -0.4112   250.1382 H         86 DT      0.0000
   1017 H6        -6.7781    -1.1304   249.5851 H         86 DT      0.0000
   1018 H71       -5.7070     2.3528   250.2836 H         86 DT      0.0000
   1019 H72       -6.7810     1.5361   249.1228 H         86 DT      0.0000
   1020 H73       -6.9706     1.2438   250.8684 H         86 DT      0.0000
   1021 P         -6.4802    -7.5434   250.4785 P.3       87 DT      0.0000
   1022 OP1       -6.3316    -8.9603   249.8664 O.co2     87 DT      0.0000
   1023 OP2       -7.8119    -7.3515   251.1084 O.co2     87 DT      0.0000
   1024 O5'       -5.1534    -7.3621   251.3608 O.3       87 DT      0.0000
   1025 C5'       -3.9549    -7.7718   250.6490 C.3       87 DT      0.0000
   1026 C4'       -2.7702    -7.1742   251.3252 C.3       87 DT      0.0000
   1027 O4'       -2.7520    -5.7523   251.3018 O.3       87 DT      0.0000
   1028 C3'       -2.5978    -7.5948   252.7918 C.3       87 DT      0.0000
   1029 O3'       -1.2421    -7.9025   253.0558 O.3       87 DT      0.0000
   1030 C2'       -2.9920    -6.2924   253.5281 C.3       87 DT      0.0000
   1031 C1'       -2.2572    -5.3232   252.6246 C.3       87 DT      0.0000
   1032 N1        -2.6237    -3.9510   252.9223 N.am      87 DT      0.0000
   1033 C2        -1.6213    -2.9962   252.9771 C.2       87 DT      0.0000
   1034 O2        -0.4549    -3.3449   252.7887 O.2       87 DT      0.0000
   1035 N3        -1.9741    -1.7031   253.2430 N.am      87 DT      0.0000
   1036 C4        -3.2672    -1.3318   253.4500 C.2       87 DT      0.0000
   1037 O4        -3.5198    -0.1133   253.6733 O.2       87 DT      0.0000
   1038 C5        -4.2907    -2.3217   253.3850 C.2       87 DT      0.0000
   1039 C7        -5.7394    -1.9902   253.5949 C.3       87 DT      0.0000
   1040 C6        -3.9264    -3.5868   253.1238 C.2       87 DT      0.0000
   1041 H5'       -3.8746    -8.8588   250.6614 H         87 DT      0.0000
   1042 H5''      -4.0036    -7.4205   249.6183 H         87 DT      0.0000
   1043 H4'       -1.8862    -7.5159   250.7867 H         87 DT      0.0000
   1044 H3'       -3.2575    -8.4219   253.0542 H         87 DT      0.0000
   1045 H2'       -4.0691    -6.1251   253.5269 H         87 DT      0.0000
   1046 H2''      -2.5894    -6.2726   254.5409 H         87 DT      0.0000
   1047 H1'       -1.1788    -5.4627   252.7002 H         87 DT      0.0000
   1048 H3        -1.2512    -0.9993   253.2874 H         87 DT      0.0000
   1049 H6        -4.6918    -4.3468   253.0707 H         87 DT      0.0000
   1050 H71       -5.8435    -0.9236   253.7938 H         87 DT      0.0000
   1051 H72       -6.3045    -2.2494   252.6996 H         87 DT      0.0000
   1052 H73       -6.1226    -2.5571   254.4433 H         87 DT      0.0000
   1053 P         -0.4512    -9.1140   253.6638 P.3       88 DC      0.0000
   1054 OP1        0.3258    -9.8596   252.5959 O.co2     88 DC      0.0000
   1055 OP2       -1.4547    -9.9055   254.3988 O.co2     88 DC      0.0000
   1056 O5'        0.6375    -8.2239   254.4898 O.3       88 DC      0.0000
   1057 C5'        1.1840    -7.3119   253.4676 C.3       88 DC      0.0000
   1058 C4'        2.1524    -6.3989   254.1641 C.3       88 DC      0.0000
   1059 O4'        1.6168    -5.1358   254.4110 O.3       88 DC      0.0000
   1060 C3'        2.7466    -6.9496   255.4555 C.3       88 DC      0.0000
   1061 O3'        4.1658    -6.9698   255.3758 O.3       88 DC      0.0000
   1062 C2'        2.0928    -6.0472   256.5043 C.3       88 DC      0.0000
   1063 C1'        1.8657    -4.7642   255.8079 C.3       88 DC      0.0000
   1064 N1         0.6395    -4.0320   256.1400 N.am      88 DC      0.0000
   1065 C2         0.7937    -2.6713   256.3958 C.2       88 DC      0.0000
   1066 O2         1.9086    -2.1404   256.4003 O.2       88 DC      0.0000
   1067 N3        -0.3399    -1.9466   256.6696 N.2       88 DC      0.0000
   1068 C4        -1.5749    -2.5255   256.6597 C.2       88 DC      0.0000
   1069 N4        -2.6105    -1.7409   256.9366 N.pl3     88 DC      0.0000
   1070 C5        -1.7174    -3.9028   256.3817 C.2       88 DC      0.0000
   1071 C6        -0.5943    -4.6012   256.1169 C.2       88 DC      0.0000
   1072 H5'        1.6980    -7.8823   252.6939 H         88 DC      0.0000
   1073 H5''       0.3781    -6.7277   253.0233 H         88 DC      0.0000
   1074 H4'        2.9867    -6.2521   253.4781 H         88 DC      0.0000
   1075 H3'        2.3892    -7.9693   255.5988 H         88 DC      0.0000
   1076 H2'        1.1481    -6.4732   256.8422 H         88 DC      0.0000
   1077 H2''       2.7654    -5.9033   257.3498 H         88 DC      0.0000
   1078 H1'        2.7393    -4.1174   255.8888 H         88 DC      0.0000
   1079 H5        -2.6873    -4.3780   256.3811 H         88 DC      0.0000
   1080 H6        -0.6785    -5.6510   255.8779 H         88 DC      0.0000
   1081 H41       -2.4632    -0.7618   257.1358 H         88 DC      0.0000
   1082 H42       -3.5451    -2.1235   256.9479 H         88 DC      0.0000
   1083 P          5.1700    -7.8174   256.3279 P.3       89 DA      0.0000
   1084 OP1        6.4409    -8.0518   255.5342 O.co2     89 DA      0.0000
   1085 OP2        4.5000    -9.0876   256.6734 O.co2     89 DA      0.0000
   1086 O5'        5.4116    -6.8338   257.6249 O.3       89 DA      0.0000
   1087 C5'        5.8471    -5.4713   257.3297 C.3       89 DA      0.0000
   1088 C4'        5.9294    -4.6662   258.5849 C.3       89 DA      0.0000
   1089 O4'        4.8138    -3.8036   258.8271 O.3       89 DA      0.0000
   1090 C3'        6.0023    -5.4761   259.8902 C.3       89 DA      0.0000
   1091 O3'        6.5250    -4.6339   260.9201 O.3       89 DA      0.0000
   1092 C2'        4.4984    -5.7392   260.1048 C.3       89 DA      0.0000
   1093 C1'        4.0397    -4.2886   259.9215 C.3       89 DA      0.0000
   1094 N9         2.5900    -4.2534   259.8272 N.ar      89 DA      0.0000
   1095 C8         1.6802    -5.2676   259.7113 C.ar      89 DA      0.0000
   1096 N7         0.4163    -4.8840   259.6928 N.ar      89 DA      0.0000
   1097 C5         0.5035    -3.5032   259.8003 C.ar      89 DA      0.0000
   1098 C6        -0.4857    -2.4896   259.8348 C.ar      89 DA      0.0000
   1099 N6        -1.7856    -2.7083   259.7495 N.pl3     89 DA      0.0000
   1100 N1        -0.0302    -1.2091   259.9674 N.ar      89 DA      0.0000
   1101 C2         1.3095    -0.9365   260.0476 C.ar      89 DA      0.0000
   1102 N3         2.2948    -1.8307   260.0177 N.ar      89 DA      0.0000
   1103 C4         1.8244    -3.0962   259.8947 C.ar      89 DA      0.0000
   1104 H5'        6.8295    -5.5027   256.8585 H         89 DA      0.0000
   1105 H5''       5.1353    -5.0050   256.6484 H         89 DA      0.0000
   1106 H4'        6.8240    -4.0464   258.5261 H         89 DA      0.0000
   1107 H3'        6.5736    -6.3974   259.7765 H         89 DA      0.0000
   1108 H2'        4.0791    -6.4090   259.3540 H         89 DA      0.0000
   1109 H2''       4.2965    -6.0963   261.1147 H         89 DA      0.0000
   1110 H1'        4.3309    -3.7303   260.8111 H         89 DA      0.0000
   1111 H8         1.9730    -6.3048   259.6404 H         89 DA      0.0000
   1112 H2         1.5929     0.1012   260.1440 H         89 DA      0.0000
   1113 H61       -2.6065    -2.1482   259.9296 H         89 DA      0.0000
   1114 H62       -2.0076    -3.6419   259.4348 H         89 DA      0.0000
   1115 P          8.0961    -4.3652   261.0606 P.3       90 DC      0.0000
   1116 OP1        8.8574    -4.6673   259.8155 O.co2     90 DC      0.0000
   1117 OP2        8.4707    -5.2639   262.2035 O.co2     90 DC      0.0000
   1118 O5'        8.1754    -2.8069   261.3437 O.3       90 DC      0.0000
   1119 C5'        8.1123    -1.8355   260.2560 C.3       90 DC      0.0000
   1120 C4'        7.4896    -0.6251   260.9610 C.3       90 DC      0.0000
   1121 O4'        6.1573    -0.9601   261.2730 O.3       90 DC      0.0000
   1122 C3'        8.1795    -0.2534   262.2709 C.3       90 DC      0.0000
   1123 O3'        8.5429     1.1441   262.3388 O.3       90 DC      0.0000
   1124 C2'        7.1731    -0.6727   263.3531 C.3       90 DC      0.0000
   1125 C1'        5.8769    -0.4781   262.6769 C.3       90 DC      0.0000
   1126 N1         4.7054    -1.2759   263.0297 N.am      90 DC      0.0000
   1127 C2         3.4923    -0.5905   263.0028 C.2       90 DC      0.0000
   1128 O2         3.4176     0.6141   262.7959 O.2       90 DC      0.0000
   1129 N3         2.3641    -1.3069   263.2560 N.2       90 DC      0.0000
   1130 C4         2.3866    -2.6414   263.4893 C.2       90 DC      0.0000
   1131 N4         1.2159    -3.2328   263.7202 N.pl3     90 DC      0.0000
   1132 C5         3.6296    -3.3322   263.4959 C.2       90 DC      0.0000
   1133 C6         4.7385    -2.6188   263.2464 C.2       90 DC      0.0000
   1134 H5'        9.1055    -1.6042   259.8712 H         90 DC      0.0000
   1135 H5''       7.4626    -2.1928   259.4570 H         90 DC      0.0000
   1136 H4'        7.5007     0.2325   260.2883 H         90 DC      0.0000
   1137 H3'        9.0813    -0.8566   262.3768 H         90 DC      0.0000
   1138 H2'        7.3150    -1.7147   263.6401 H         90 DC      0.0000
   1139 H2''       7.2529    -0.0213   264.2233 H         90 DC      0.0000
   1140 H1'        5.6177     0.5805   262.6637 H         90 DC      0.0000
   1141 H5         3.6793    -4.3926   263.6944 H         90 DC      0.0000
   1142 H6         5.6903    -3.1282   263.2167 H         90 DC      0.0000
   1143 H41        0.3647    -2.6893   263.7092 H         90 DC      0.0000
   1144 H42        1.1794    -4.2248   263.9064 H         90 DC      0.0000
   1145 P         -8.4849     0.2310   265.2983 P.3       90 DG      0.0000
   1146 OP1       -9.9696     0.2044   265.4771 O.co2     90 DG      0.0000
   1147 OP2       -7.9977    -0.7205   264.2135 O.co2     90 DG      0.0000
   1148 O5'       -7.9879     1.7864   265.0911 O.3       90 DG      0.0000
   1149 C5'       -7.2885     2.4647   266.1868 C.3       90 DG      0.0000
   1150 C4'       -6.1995     3.3268   265.5526 C.3       90 DG      0.0000
   1151 O4'       -4.9790     2.6445   265.4567 O.3       90 DG      0.0000
   1152 C3'       -6.5254     3.8226   264.1462 C.3       90 DG      0.0000
   1153 O3'       -6.1047     5.1804   263.8792 O.3       90 DG      0.0000
   1154 C2'       -5.7888     2.8162   263.2439 C.3       90 DG      0.0000
   1155 C1'       -4.5382     2.5583   264.0677 C.3       90 DG      0.0000
   1156 N9        -3.9900     1.2189   263.7944 N.ar      90 DG      0.0000
   1157 C8        -4.6788     0.0396   263.6378 C.ar      90 DG      0.0000
   1158 N7        -3.9141    -0.9970   263.4194 N.ar      90 DG      0.0000
   1159 C5        -2.6286    -0.4690   263.4442 C.ar      90 DG      0.0000
   1160 C6        -1.3586    -1.0855   263.2877 C.2       90 DG      0.0000
   1161 O6        -1.1395    -2.2893   263.0909 O.2       90 DG      0.0000
   1162 N1        -0.2959    -0.2203   263.3746 N.am      90 DG      0.0000
   1163 C2        -0.4498     1.1083   263.5953 C.2       90 DG      0.0000
   1164 N2         0.6711     1.8217   263.6586 N.pl3     90 DG      0.0000
   1165 N3        -1.6206     1.7378   263.7530 N.2       90 DG      0.0000
   1166 C4        -2.6628     0.8883   263.6697 C.ar      90 DG      0.0000
   1167 H5'       -7.9847     3.0910   266.7446 H         90 DG      0.0000
   1168 H5''      -6.8380     1.7278   266.8518 H         90 DG      0.0000
   1169 H4'       -6.0479     4.1984   266.1893 H         90 DG      0.0000
   1170 H3'       -7.5988     3.7392   263.9757 H         90 DG      0.0000
   1171 H2'       -6.3701     1.9052   263.1012 H         90 DG      0.0000
   1172 H2''      -5.5351     3.2684   262.2852 H         90 DG      0.0000
   1173 H1'       -3.7876     3.3217   263.8625 H         90 DG      0.0000
   1174 H8        -5.7556    -0.0243   263.6905 H         90 DG      0.0000
   1175 H1         0.6386    -0.5889   263.2698 H         90 DG      0.0000
   1176 H21        1.5659     1.3677   263.5436 H         90 DG      0.0000
   1177 H22        0.6274     2.8175   263.8218 H         90 DG      0.0000
   1178 P         -5.7260     5.5023   262.3557 P.3       89 DT      0.0000
   1179 OP1       -5.9515     6.9380   261.9648 O.co2     89 DT      0.0000
   1180 OP2       -6.6723     4.5996   261.6552 O.co2     89 DT      0.0000
   1181 O5'       -4.1720     5.1343   262.2248 O.3       89 DT      0.0000
   1182 C5'       -3.2153     6.2090   262.4925 C.3       89 DT      0.0000
   1183 C4'       -1.9390     5.9127   261.7354 C.3       89 DT      0.0000
   1184 O4'       -1.6212     4.5326   261.7081 O.3       89 DT      0.0000
   1185 C3'       -1.9928     6.3531   260.2807 C.3       89 DT      0.0000
   1186 O3'       -0.7515     6.9006   259.7856 O.3       89 DT      0.0000
   1187 C2'       -2.3754     5.0807   259.5579 C.3       89 DT      0.0000
   1188 C1'       -1.5266     4.0890   260.3360 C.3       89 DT      0.0000
   1189 N1        -2.1670     2.7729   260.1847 N.am      89 DT      0.0000
   1190 C2        -1.3305     1.6665   260.2914 C.2       89 DT      0.0000
   1191 O2        -0.1277     1.8126   260.4812 O.2       89 DT      0.0000
   1192 N3        -1.9082     0.4335   260.1713 N.am      89 DT      0.0000
   1193 C4        -3.2448     0.2816   259.9537 C.2       89 DT      0.0000
   1194 O4        -3.6922    -0.9088   259.8561 O.2       89 DT      0.0000
   1195 C5        -4.0758     1.4333   259.8473 C.2       89 DT      0.0000
   1196 C7        -5.5519     1.2776   259.6184 C.3       89 DT      0.0000
   1197 C6        -3.5062     2.6351   259.9691 C.2       89 DT      0.0000
   1198 H5'       -3.6284     7.1609   262.1587 H         89 DT      0.0000
   1199 H5''      -3.0053     6.2552   263.5611 H         89 DT      0.0000
   1200 H4'       -1.1210     6.4426   262.2234 H         89 DT      0.0000
   1201 H3'       -2.7862     7.0902   260.1567 H         89 DT      0.0000
   1202 H2'       -3.4399     4.8650   259.6494 H         89 DT      0.0000
   1203 H2''      -2.0724     5.1188   258.5115 H         89 DT      0.0000
   1204 H1'       -0.4946     4.0785   259.9853 H         89 DT      0.0000
   1205 H3        -1.3272    -0.3893   260.2459 H         89 DT      0.0000
   1206 H6        -4.1215     3.5196   259.8949 H         89 DT      0.0000
   1207 H71       -5.7996     0.2184   259.5497 H         89 DT      0.0000
   1208 H72       -6.0973     1.7250   260.4492 H         89 DT      0.0000
   1209 H73       -5.8303     1.7769   258.6902 H         89 DT      0.0000
   1210 P         -1.1196     8.3195   259.0072 P.3       88 DG      0.0000
   1211 OP1       -0.9883     9.5261   259.8785 O.co2     88 DG      0.0000
   1212 OP2       -2.5094     7.9926   258.6017 O.co2     88 DG      0.0000
   1213 O5'        0.0568     8.3718   257.9264 O.3       88 DG      0.0000
   1214 C5'        1.3771     8.7965   258.3499 C.3       88 DG      0.0000
   1215 C4'        2.3084     7.6769   257.9021 C.3       88 DG      0.0000
   1216 O4'        1.7105     6.4249   258.1729 O.3       88 DG      0.0000
   1217 C3'        2.6588     7.7055   256.4144 C.3       88 DG      0.0000
   1218 O3'        4.0591     7.7483   256.2059 O.3       88 DG      0.0000
   1219 C2'        1.9485     6.4937   255.8377 C.3       88 DG      0.0000
   1220 C1'        1.8607     5.5627   257.0238 C.3       88 DG      0.0000
   1221 N9         0.7094     4.6645   256.9003 N.ar      88 DG      0.0000
   1222 C8        -0.6076     4.9907   256.7414 C.ar      88 DG      0.0000
   1223 N7        -1.4029     3.9517   256.6634 N.ar      88 DG      0.0000
   1224 C5        -0.5489     2.8612   256.8009 C.ar      88 DG      0.0000
   1225 C6        -0.7929     1.4625   256.8104 C.2       88 DG      0.0000
   1226 O6        -1.8783     0.8992   256.7113 O.2       88 DG      0.0000
   1227 N1         0.3249     0.6916   256.9593 N.am      88 DG      0.0000
   1228 C2         1.5776     1.2400   257.0922 C.2       88 DG      0.0000
   1229 N2         2.5814     0.3729   257.2279 N.pl3     88 DG      0.0000
   1230 N3         1.8755     2.5432   257.0965 N.2       88 DG      0.0000
   1231 C4         0.7581     3.2945   256.9458 C.ar      88 DG      0.0000
   1232 H5'        1.6498     9.7370   257.8711 H         88 DG      0.0000
   1233 H5''       1.4092     8.9024   259.4342 H         88 DG      0.0000
   1234 H4'        3.2328     7.7482   258.4751 H         88 DG      0.0000
   1235 H3'        2.2194     8.6013   255.9758 H         88 DG      0.0000
   1236 H2'        0.9565     6.7576   255.4713 H         88 DG      0.0000
   1237 H2''       2.5431     6.0446   255.0421 H         88 DG      0.0000
   1238 H1'        2.7790     4.9820   257.1109 H         88 DG      0.0000
   1239 H8        -0.9607     6.0098   256.6853 H         88 DG      0.0000
   1240 H1         0.2273    -0.3136   256.9722 H         88 DG      0.0000
   1241 H21        2.3948    -0.6197   257.2288 H         88 DG      0.0000
   1242 H22        3.5285     0.7087   257.3296 H         88 DG      0.0000
   1243 P          5.0871     6.9177   255.3396 P.3       87 DA      0.0000
   1244 OP1        6.3910     6.7120   256.1210 O.co2     87 DA      0.0000
   1245 OP2        5.3286     7.7329   254.1469 O.co2     87 DA      0.0000
   1246 O5'        4.4396     5.4331   255.1648 O.3       87 DA      0.0000
   1247 C5'        4.7456     4.5669   256.3213 C.3       87 DA      0.0000
   1248 C4'        5.5717     3.4200   255.7934 C.3       87 DA      0.0000
   1249 O4'        4.8056     2.2633   255.5712 O.3       87 DA      0.0000
   1250 C3'        6.2359     3.7317   254.4530 C.3       87 DA      0.0000
   1251 O3'        7.5553     3.2470   254.3778 O.3       87 DA      0.0000
   1252 C2'        5.2269     3.1899   253.4564 C.3       87 DA      0.0000
   1253 C1'        4.4377     2.1350   254.1802 C.3       87 DA      0.0000
   1254 N9         2.9903     2.2883   253.9547 N.ar      87 DA      0.0000
   1255 C8         2.2601     3.4422   253.7684 C.ar      87 DA      0.0000
   1256 N7         0.9767     3.2452   253.5725 N.ar      87 DA      0.0000
   1257 C5         0.8501     1.8644   253.6593 C.ar      87 DA      0.0000
   1258 C6        -0.2797     1.0199   253.5537 C.ar      87 DA      0.0000
   1259 N6        -1.5081     1.4579   253.3412 N.pl3     87 DA      0.0000
   1260 N1        -0.0427    -0.3153   253.6774 N.ar      87 DA      0.0000
   1261 C2         1.2158    -0.7962   253.9019 C.ar      87 DA      0.0000
   1262 N3         2.3174    -0.0575   254.0178 N.ar      87 DA      0.0000
   1263 C4         2.0692     1.2676   253.8817 C.ar      87 DA      0.0000
   1264 H5'        5.3099     5.1237   257.0693 H         87 DA      0.0000
   1265 H5''       3.8211     4.1891   256.7579 H         87 DA      0.0000
   1266 H4'        6.3492     3.1877   256.5211 H         87 DA      0.0000
   1267 H3'        6.2700     4.8153   254.3398 H         87 DA      0.0000
   1268 H2'        5.7406     2.7542   252.5995 H         87 DA      0.0000
   1269 H2''       4.5640     3.9895   253.1258 H         87 DA      0.0000
   1270 H1'        4.7487     1.1537   253.8220 H         87 DA      0.0000
   1271 H8         2.7059     4.4258   253.7823 H         87 DA      0.0000
   1272 H2         1.3267    -1.8666   253.9932 H         87 DA      0.0000
   1273 H61       -2.3117     0.9336   253.6566 H         87 DA      0.0000
   1274 H62       -1.6459     2.3324   252.8550 H         87 DA      0.0000
   1275 P          8.3570     2.5756   253.1932 P.3       86 DA      0.0000
   1276 OP1        9.6956     1.9748   253.7131 O.co2     86 DA      0.0000
   1277 OP2        8.6609     3.7044   252.2595 O.co2     86 DA      0.0000
   1278 O5'        7.5113     1.3450   252.6905 O.3       86 DA      0.0000
   1279 C5'        7.8336     0.0148   253.1463 C.3       86 DA      0.0000
   1280 C4'        6.8867    -0.9341   252.4444 C.3       86 DA      0.0000
   1281 O4'        5.5773    -0.4560   252.3236 O.3       86 DA      0.0000
   1282 C3'        7.3411    -1.3179   251.0369 C.3       86 DA      0.0000
   1283 O3'        7.6713    -2.7193   251.0054 O.3       86 DA      0.0000
   1284 C2'        6.2097    -0.8170   250.1373 C.3       86 DA      0.0000
   1285 C1'        5.0107    -0.8655   251.0351 C.3       86 DA      0.0000
   1286 N9         3.9348     0.0736   250.7355 N.ar      86 DA      0.0000
   1287 C8         3.9956     1.4380   250.5407 C.ar      86 DA      0.0000
   1288 N7         2.8239     1.9970   250.3353 N.ar      86 DA      0.0000
   1289 C5         1.9304     0.9463   250.4098 C.ar      86 DA      0.0000
   1290 C6         0.5249     0.8918   250.2764 C.ar      86 DA      0.0000
   1291 N6        -0.2375     1.9536   250.0332 N.pl3     86 DA      0.0000
   1292 N1        -0.0281    -0.3547   250.4252 N.ar      86 DA      0.0000
   1293 C2         0.7181    -1.4473   250.6777 C.ar      86 DA      0.0000
   1294 N3         2.0471    -1.4718   250.8166 N.ar      86 DA      0.0000
   1295 C4         2.5890    -0.2423   250.6694 C.ar      86 DA      0.0000
   1296 H5'        8.8649    -0.2288   252.8912 H         86 DA      0.0000
   1297 H5''       7.6929    -0.0517   254.2251 H         86 DA      0.0000
   1298 H4'        6.8461    -1.8496   253.0345 H         86 DA      0.0000
   1299 H3'        8.2411    -0.7498   250.8019 H         86 DA      0.0000
   1300 H2'        6.4023     0.2006   249.7974 H         86 DA      0.0000
   1301 H2''       6.0757    -1.4843   249.2860 H         86 DA      0.0000
   1302 H1'        4.6221    -1.8821   251.0962 H         86 DA      0.0000
   1303 H8         4.9205     1.9953   250.5557 H         86 DA      0.0000
   1304 H2         0.1959    -2.3874   250.7768 H         86 DA      0.0000
   1305 H61       -1.2002     1.8700   250.3272 H         86 DA      0.0000
   1306 H62        0.1207     2.7852   249.5859 H         86 DA      0.0000
   1307 P          8.1683    -3.3726   249.6204 P.3       85 DT      0.0000
   1308 OP1        8.8015    -4.7287   249.6786 O.co2     85 DT      0.0000
   1309 OP2        9.0464    -2.2768   249.1078 O.co2     85 DT      0.0000
   1310 O5'        6.6723    -3.5855   248.9173 O.3       85 DT      0.0000
   1311 C5'        5.7402    -4.0724   249.9296 C.3       85 DT      0.0000
   1312 C4'        4.6049    -4.7657   249.2467 C.3       85 DT      0.0000
   1313 O4'        3.4827    -3.9546   249.0663 O.3       85 DT      0.0000
   1314 C3'        4.9579    -5.3450   247.8854 C.3       85 DT      0.0000
   1315 O3'        4.3067    -6.5930   247.6181 O.3       85 DT      0.0000
   1316 C2'        4.5209    -4.1766   246.9921 C.3       85 DT      0.0000
   1317 C1'        3.2091    -3.7755   247.6321 C.3       85 DT      0.0000
   1318 N1         2.9160    -2.3483   247.4021 N.am      85 DT      0.0000
   1319 C2         1.5876    -1.9802   247.2805 C.2       85 DT      0.0000
   1320 O2         0.6877    -2.8208   247.3173 O.2       85 DT      0.0000
   1321 N3         1.3020    -0.6523   247.1131 N.am      85 DT      0.0000
   1322 C4         2.2788     0.2929   247.0646 C.2       85 DT      0.0000
   1323 O4         1.9246     1.4954   246.8791 O.2       85 DT      0.0000
   1324 C5         3.6371    -0.1044   247.2130 C.2       85 DT      0.0000
   1325 C7         4.7481     0.9173   247.1609 C.3       85 DT      0.0000
   1326 C6         3.8991    -1.4041   247.3860 C.2       85 DT      0.0000
   1327 H5'        6.2511    -4.7715   250.5917 H         85 DT      0.0000
   1328 H5''       5.3591    -3.2319   250.5097 H         85 DT      0.0000
   1329 H4'        4.3038    -5.5974   249.8837 H         85 DT      0.0000
   1330 H3'        6.0377    -5.4746   247.8134 H         85 DT      0.0000
   1331 H2'        5.2436    -3.3612   247.0227 H         85 DT      0.0000
   1332 H2''       4.3628    -4.5132   245.9675 H         85 DT      0.0000
   1333 H1'        2.3893    -4.4117   247.2982 H         85 DT      0.0000
   1334 H3         0.3377    -0.3658   247.0230 H         85 DT      0.0000
   1335 H6         4.9245    -1.7166   247.5174 H         85 DT      0.0000
   1336 H71        5.1686     0.9466   246.1557 H         85 DT      0.0000
   1337 H72        5.5270     0.6432   247.8724 H         85 DT      0.0000
   1338 H73        4.3509     1.8994   247.4174 H         85 DT      0.0000
   1339 P          4.5597    -7.2180   246.1282 P.3       84 DT      0.0000
   1340 OP1        5.3573    -8.5150   246.2762 O.co2     84 DT      0.0000
   1341 OP2        5.4090    -6.1760   245.4584 O.co2     84 DT      0.0000
   1342 O5'        3.1733    -7.4531   245.4762 O.3       84 DT      0.0000
   1343 C5'        1.9972    -7.7538   246.2276 C.3       84 DT      0.0000
   1344 C4'        0.8154    -7.2256   245.4796 C.3       84 DT      0.0000
   1345 O4'        0.6263    -5.8375   245.4226 O.3       84 DT      0.0000
   1346 C3'        0.6401    -7.6774   244.0135 C.3       84 DT      0.0000
   1347 O3'       -0.7850    -7.7518   243.9098 O.3       84 DT      0.0000
   1348 C2'        1.2115    -6.4754   243.2498 C.3       84 DT      0.0000
   1349 C1'        0.4819    -5.3979   244.0255 C.3       84 DT      0.0000
   1350 N1         1.0377    -4.0458   243.9193 N.am      84 DT      0.0000
   1351 C2         0.0963    -3.0078   243.9187 C.2       84 DT      0.0000
   1352 O2        -1.1126    -3.2451   243.9618 O.2       84 DT      0.0000
   1353 N3         0.5791    -1.7318   243.8653 N.am      84 DT      0.0000
   1354 C4         1.9113    -1.4486   243.8055 C.2       84 DT      0.0000
   1355 O4         2.2590    -0.2311   243.7431 O.2       84 DT      0.0000
   1356 C5         2.8446    -2.5209   243.8138 C.2       84 DT      0.0000
   1357 C7         4.3277    -2.2208   243.7523 C.3       84 DT      0.0000
   1358 C6         2.3679    -3.7674   243.8802 C.2       84 DT      0.0000
   1359 H5'        1.9038    -8.8329   246.3498 H         84 DT      0.0000
   1360 H5''       2.0552    -7.2773   247.2061 H         84 DT      0.0000
   1361 H4'       -0.0562    -7.6136   246.0068 H         84 DT      0.0000
   1362 H3'        1.1427    -8.6172   243.7848 H         84 DT      0.0000
   1363 H2'        0.9398    -6.4852   242.1942 H         84 DT      0.0000
   1364 H2''       2.2907    -6.3979   243.3814 H         84 DT      0.0000
   1365 H1'       -0.5718    -5.3888   243.7465 H         84 DT      0.0000
   1366 H3        -0.0786    -0.9653   243.8701 H         84 DT      0.0000
   1367 H6         3.0690    -4.5885   243.9039 H         84 DT      0.0000
   1368 H71        4.4791    -1.1424   243.7035 H         84 DT      0.0000
   1369 H72        4.7563    -2.6881   242.8657 H         84 DT      0.0000
   1370 H73        4.8156    -2.6161   244.6433 H         84 DT      0.0000
   1371 P         -1.6021    -8.4067   242.7635 P.3       83 DC      0.0000
   1372 OP1       -2.6656    -9.3223   243.3727 O.co2     83 DC      0.0000
   1373 OP2       -0.6227    -9.2246   241.9817 O.co2     83 DC      0.0000
   1374 O5'       -2.2160    -7.0912   242.0241 O.3       83 DC      0.0000
   1375 C5'       -3.3023    -6.4261   242.7487 C.3       83 DC      0.0000
   1376 C4'       -4.2349    -5.8815   241.6981 C.3       83 DC      0.0000
   1377 O4'       -4.0204    -4.5110   241.4528 O.3       83 DC      0.0000
   1378 C3'       -4.1526    -6.5679   240.3337 C.3       83 DC      0.0000
   1379 O3'       -5.3917    -6.6351   239.6244 O.3       83 DC      0.0000
   1380 C2'       -3.0806    -5.7100   239.6476 C.3       83 DC      0.0000
   1381 C1'       -3.3764    -4.3147   240.1942 C.3       83 DC      0.0000
   1382 N1        -2.0901    -3.5885   240.3120 N.am      83 DC      0.0000
   1383 C2        -2.1481    -2.1957   240.3292 C.2       83 DC      0.0000
   1384 O2        -3.2313    -1.5989   240.2605 O.2       83 DC      0.0000
   1385 N3        -0.9618    -1.5207   240.4324 N.2       83 DC      0.0000
   1386 C4         0.2322    -2.1651   240.5032 C.2       83 DC      0.0000
   1387 N4         1.3624    -1.4622   240.6051 N.pl3     83 DC      0.0000
   1388 C5         0.2633    -3.5874   240.4781 C.2       83 DC      0.0000
   1389 C6        -0.9025    -4.2497   240.3845 C.2       83 DC      0.0000
   1390 H5'       -3.8252    -7.1404   243.3846 H         83 DC      0.0000
   1391 H5''      -2.9037    -5.6108   243.3525 H         83 DC      0.0000
   1392 H4'       -5.2541    -5.9971   242.0669 H         83 DC      0.0000
   1393 H3'       -3.7658    -7.5780   240.4679 H         83 DC      0.0000
   1394 H2'       -3.1872    -5.7392   238.5632 H         83 DC      0.0000
   1395 H2''      -2.0829    -6.0341   239.9435 H         83 DC      0.0000
   1396 H1'       -4.0425    -3.7829   239.5148 H         83 DC      0.0000
   1397 H5         1.2003    -4.1215   240.5328 H         83 DC      0.0000
   1398 H6        -0.8968    -5.3296   240.3664 H         83 DC      0.0000
   1399 H41        1.3294    -0.4530   240.6258 H         83 DC      0.0000
   1400 H42        2.2507    -1.9397   240.6615 H         83 DC      0.0000
   1401 P         -5.5786    -6.4946   237.9924 P.3       82 DA      0.0000
   1402 OP1       -6.8752    -7.1710   237.6029 O.co2     82 DA      0.0000
   1403 OP2       -4.3532    -7.1177   237.4224 O.co2     82 DA      0.0000
   1404 O5'       -5.7704    -4.9184   237.8269 O.3       82 DA      0.0000
   1405 C5'       -7.0439    -4.3240   238.2923 C.3       82 DA      0.0000
   1406 C4'       -7.1478    -3.0880   237.4150 C.3       82 DA      0.0000
   1407 O4'       -6.0465    -2.2106   237.6824 O.3       82 DA      0.0000
   1408 C3'       -7.0426    -3.3954   235.9106 C.3       82 DA      0.0000
   1409 O3'       -7.5107    -2.3133   235.1216 O.3       82 DA      0.0000
   1410 C2'       -5.5143    -3.4030   235.7232 C.3       82 DA      0.0000
   1411 C1'       -5.2822    -2.0654   236.4778 C.3       82 DA      0.0000
   1412 N9        -3.8329    -1.9751   236.6232 N.ar      82 DA      0.0000
   1413 C8        -2.9502    -3.0294   236.6961 C.ar      82 DA      0.0000
   1414 N7        -1.7009    -2.6542   236.8107 N.ar      82 DA      0.0000
   1415 C5        -1.7768    -1.2499   236.8043 C.ar      82 DA      0.0000
   1416 C6        -0.7597    -0.2611   236.9043 C.ar      82 DA      0.0000
   1417 N6         0.5407    -0.5424   237.0271 N.pl3     82 DA      0.0000
   1418 N1        -1.2165     1.0219   236.8691 N.ar      82 DA      0.0000
   1419 C2        -2.5362     1.3079   236.7503 C.ar      82 DA      0.0000
   1420 N3        -3.5413     0.4323   236.6588 N.ar      82 DA      0.0000
   1421 C4        -3.0786    -0.8297   236.6863 C.ar      82 DA      0.0000
   1422 H5'       -7.8821    -5.0006   238.1256 H         82 DA      0.0000
   1423 H5''      -6.9772    -4.0453   239.3439 H         82 DA      0.0000
   1424 H4'       -8.0858    -2.5716   237.6190 H         82 DA      0.0000
   1425 H3'       -7.5052    -4.3448   235.6410 H         82 DA      0.0000
   1426 H2'       -5.0307    -4.2528   236.2048 H         82 DA      0.0000
   1427 H2''      -5.2374    -3.3252   234.6718 H         82 DA      0.0000
   1428 H1'       -5.6571    -1.2281   235.8894 H         82 DA      0.0000
   1429 H8        -3.2580    -4.0641   236.6621 H         82 DA      0.0000
   1430 H2        -2.8034     2.3540   236.7271 H         82 DA      0.0000
   1431 H61        0.8493    -1.5038   237.0519 H         82 DA      0.0000
   1432 H62        1.2151     0.2063   237.0952 H         82 DA      0.0000
   1433 P         -8.5900    -2.5477   233.9807 P.3       81 DC      0.0000
   1434 OP1       -9.8938    -2.5176   234.7609 O.co2     81 DC      0.0000
   1435 OP2       -8.3825    -3.8060   233.2551 O.co2     81 DC      0.0000
   1436 O5'       -8.2836    -1.2600   233.0048 O.3       81 DC      0.0000
   1437 C5'       -8.2667     0.0586   233.6738 C.3       81 DC      0.0000
   1438 C4'       -7.2027     0.9077   233.0298 C.3       81 DC      0.0000
   1439 O4'       -5.9342     0.8184   233.6669 O.3       81 DC      0.0000
   1440 C3'       -6.9664     0.5521   231.5520 C.3       81 DC      0.0000
   1441 O3'       -6.6084     1.6639   230.7407 O.3       81 DC      0.0000
   1442 C2'       -5.7223    -0.3809   231.7176 C.3       81 DC      0.0000
   1443 C1'       -4.9605     0.6642   232.6132 C.3       81 DC      0.0000
   1444 N1        -3.6436     0.1336   232.8511 N.am      81 DC      0.0000
   1445 C2        -2.6234     1.0158   233.1682 C.2       81 DC      0.0000
   1446 O2        -2.6562     2.2435   233.3087 O.2       81 DC      0.0000
   1447 N3        -1.3712     0.5038   233.3664 N.2       81 DC      0.0000
   1448 C4        -1.1084    -0.8335   233.2505 C.2       81 DC      0.0000
   1449 N4         0.1347    -1.2913   233.4665 N.pl3     81 DC      0.0000
   1450 C5        -2.1653    -1.7263   232.9208 C.2       81 DC      0.0000
   1451 C6        -3.3813    -1.2016   232.7291 C.2       81 DC      0.0000
   1452 H5'       -9.2384     0.5398   233.5623 H         81 DC      0.0000
   1453 H5''      -8.0413    -0.0706   234.7324 H         81 DC      0.0000
   1454 H4'       -7.5290     1.9466   233.0765 H         81 DC      0.0000
   1455 H3'       -7.8151     0.0116   231.1329 H         81 DC      0.0000
   1456 H2'       -5.9457    -1.3141   232.2347 H         81 DC      0.0000
   1457 H2''      -5.2128    -0.5526   230.7694 H         81 DC      0.0000
   1458 H1'       -4.8730     1.6042   232.0683 H         81 DC      0.0000
   1459 H5        -1.9928    -2.7885   232.8287 H         81 DC      0.0000
   1460 H6        -4.1925    -1.8641   232.4659 H         81 DC      0.0000
   1461 H41        0.8751    -0.6479   233.7070 H         81 DC      0.0000
   1462 H42        0.3297    -2.2792   233.3886 H         81 DC      0.0000
   1463 P          9.4622     3.2936   267.3398 P.3       91 DG      0.0000
   1464 OP1       10.9269     3.0563   267.3383 O.co2     91 DG      0.0000
   1465 OP2        8.8622     2.3535   268.3955 O.co2     91 DG      0.0000
   1466 O5'        8.9781     4.7987   267.5182 O.3       91 DG      0.0000
   1467 C5'        8.5023     5.7245   266.5182 C.3       91 DG      0.0000
   1468 C4'        7.2084     6.3332   267.0170 C.3       91 DG      0.0000
   1469 O4'        6.0795     5.5973   266.5979 O.3       91 DG      0.0000
   1470 C3'        7.0551     6.5479   268.5092 C.3       91 DG      0.0000
   1471 O3'        6.7157     7.9259   268.8212 O.3       91 DG      0.0000
   1472 C2'        5.9875     5.5564   268.9311 C.3       91 DG      0.0000
   1473 C1'        5.1737     5.3566   267.6755 C.3       91 DG      0.0000
   1474 N9         4.6163     3.9921   267.6464 N.ar      91 DG      0.0000
   1475 C8         5.2419     2.7894   267.8753 C.ar      91 DG      0.0000
   1476 N7         4.4483     1.7461   267.7856 N.ar      91 DG      0.0000
   1477 C5         3.2099     2.2983   267.4686 C.ar      91 DG      0.0000
   1478 C6         1.9426     1.7066   267.2426 C.2       91 DG      0.0000
   1479 O6         1.6443     0.5121   267.2639 O.2       91 DG      0.0000
   1480 N1         0.9319     2.5845   266.9611 N.am      91 DG      0.0000
   1481 C2         1.1061     3.8659   266.9005 C.2       91 DG      0.0000
   1482 N2         0.0114     4.4513   266.6037 N.pl3     91 DG      0.0000
   1483 N3         2.3125     4.5420   267.1092 N.2       91 DG      0.0000
   1484 C4         3.2983     3.6751   267.3818 C.ar      91 DG      0.0000
   1485 H5'        9.2423     6.5090   266.3595 H         91 DG      0.0000
   1486 H5''       8.3225     5.1945   265.5829 H         91 DG      0.0000
   1487 H4'        7.1283     7.3158   266.5523 H         91 DG      0.0000
   1488 H3'        7.9926     6.2923   269.0032 H         91 DG      0.0000
   1489 H2'        6.4353     4.6180   269.2581 H         91 DG      0.0000
   1490 H2''       5.3681     5.9783   269.7226 H         91 DG      0.0000
   1491 H1'        4.3633     6.0848   267.6435 H         91 DG      0.0000
   1492 H8         6.2935     2.7093   268.1084 H         91 DG      0.0000
   1493 H1         0.0069     2.2158   266.7928 H         91 DG      0.0000
   1494 H21       -0.8283     3.9089   266.4593 H         91 DG      0.0000
   1495 H22       -0.0152     5.4569   266.5133 H         91 DG      0.0000
   1496 P          6.2196     8.3795   270.2497 P.3       92 DT      0.0000
   1497 OP1        6.7637     9.6881   270.7614 O.co2     92 DT      0.0000
   1498 OP2        6.8409     7.3117   271.1684 O.co2     92 DT      0.0000
   1499 O5'        4.6761     8.2390   270.2783 O.3       92 DT      0.0000
   1500 C5'        3.7728     9.3694   270.1343 C.3       92 DT      0.0000
   1501 C4'        2.3874     8.7604   270.1918 C.3       92 DT      0.0000
   1502 O4'        2.4014     7.3769   269.9167 O.3       92 DT      0.0000
   1503 C3'        1.6556     8.8816   271.5046 C.3       92 DT      0.0000
   1504 O3'        0.5023     9.7147   271.3164 O.3       92 DT      0.0000
   1505 C2'        1.2621     7.4576   271.8968 C.3       92 DT      0.0000
   1506 C1'        1.2213     6.7956   270.5441 C.3       92 DT      0.0000
   1507 N1         1.4440     5.3529   270.6407 N.am      92 DT      0.0000
   1508 C2         0.3654     4.5340   270.4428 C.2       92 DT      0.0000
   1509 O2        -0.7588     4.9694   270.2046 O.2       92 DT      0.0000
   1510 N3         0.5836     3.1850   270.5238 N.am      92 DT      0.0000
   1511 C4         1.7994     2.6512   270.7797 C.2       92 DT      0.0000
   1512 O4         1.8448     1.3940   270.8250 O.2       92 DT      0.0000
   1513 C5         2.9170     3.5238   270.9794 C.2       92 DT      0.0000
   1514 C7         4.2780     2.9742   271.2593 C.3       92 DT      0.0000
   1515 C6         2.6943     4.8418   270.8979 C.2       92 DT      0.0000
   1516 H5'        3.9143    10.0810   270.9478 H         92 DT      0.0000
   1517 H5''       3.9305     9.8586   269.1732 H         92 DT      0.0000
   1518 H4'        1.7799     9.2447   269.4273 H         92 DT      0.0000
   1519 H3'        2.3108     9.3124   272.2617 H         92 DT      0.0000
   1520 H2'        2.0086     6.9993   272.5456 H         92 DT      0.0000
   1521 H2''       0.2784     7.4423   272.3660 H         92 DT      0.0000
   1522 H1'        0.3081     7.0337   269.9987 H         92 DT      0.0000
   1523 H3        -0.1982     2.5607   270.3863 H         92 DT      0.0000
   1524 H6         3.5207     5.5230   271.0383 H         92 DT      0.0000
   1525 H71        4.8828     3.0216   270.3538 H         92 DT      0.0000
   1526 H72        4.1911     1.9374   271.5841 H         92 DT      0.0000
   1527 H73        4.7529     3.5624   272.0446 H         92 DT      0.0000
   1528 P          0.1907    10.6690   272.5963 P.3       93 DG      0.0000
   1529 OP1       -0.3003    11.9214   271.8813 O.co2     93 DG      0.0000
   1530 OP2        1.4169    10.8609   273.3498 O.co2     93 DG      0.0000
   1531 O5'       -1.0045     9.7394   273.2058 O.3       93 DG      0.0000
   1532 C5'       -1.9179     9.3398   272.1152 C.3       93 DG      0.0000
   1533 C4'       -2.7917     8.2366   272.6353 C.3       93 DG      0.0000
   1534 O4'       -2.3221     6.9274   272.4547 O.3       93 DG      0.0000
   1535 C3'       -3.1067     8.3919   274.1433 C.3       93 DG      0.0000
   1536 O3'       -4.5459     8.3662   274.3022 O.3       93 DG      0.0000
   1537 C2'       -2.3371     7.2633   274.7959 C.3       93 DG      0.0000
   1538 C1'       -2.3827     6.1903   273.7143 C.3       93 DG      0.0000
   1539 N9        -1.3001     5.2147   273.8839 N.ar      93 DG      0.0000
   1540 C8         0.0068     5.4367   274.2201 C.ar      93 DG      0.0000
   1541 N7         0.7429     4.3506   274.3058 N.ar      93 DG      0.0000
   1542 C5        -0.1554     3.3383   273.9758 C.ar      93 DG      0.0000
   1543 C6         0.0236     1.9285   273.8815 C.2       93 DG      0.0000
   1544 O6         1.0585     1.2731   274.0738 O.2       93 DG      0.0000
   1545 N1        -1.1150     1.2319   273.5464 N.am      93 DG      0.0000
   1546 C2        -2.3031     1.8581   273.3227 C.2       93 DG      0.0000
   1547 N2        -3.3032     1.0222   273.0138 N.pl3     93 DG      0.0000
   1548 N3        -2.5197     3.1695   273.3937 N.2       93 DG      0.0000
   1549 C4        -1.4088     3.8519   273.7203 C.ar      93 DG      0.0000
   1550 H5'       -2.5314    10.1892   271.8148 H         93 DG      0.0000
   1551 H5''      -1.3404     8.9820   271.2628 H         93 DG      0.0000
   1552 H4'       -3.7412     8.3082   272.1047 H         93 DG      0.0000
   1553 H3'       -2.7198     9.3472   274.4981 H         93 DG      0.0000
   1554 H2'       -1.3120     7.5589   275.0188 H         93 DG      0.0000
   1555 H2''      -2.8446     6.9224   275.6983 H         93 DG      0.0000
   1556 H1'       -3.3388     5.6703   273.7733 H         93 DG      0.0000
   1557 H8         0.4027     6.4252   274.4007 H         93 DG      0.0000
   1558 H1        -1.0679     0.2264   273.4641 H         93 DG      0.0000
   1559 H21       -3.1331     0.0279   272.9636 H         93 DG      0.0000
   1560 H22       -4.2275     1.3863   272.8312 H         93 DG      0.0000
   1561 P         -5.2204     8.6133   275.6906 P.3       94 DA      0.0000
   1562 OP1       -5.5332    10.0307   276.0460 O.co2     94 DA      0.0000
   1563 OP2       -4.0112     8.1558   276.5863 O.co2     94 DA      0.0000
   1564 O5'       -6.3224     7.5005   275.9397 O.3       94 DA      0.0000
   1565 C5'       -6.9801     6.7467   274.9107 C.3       94 DA      0.0000
   1566 C4'       -6.9421     5.3030   275.3850 C.3       94 DA      0.0000
   1567 O4'       -5.6301     4.7901   275.2946 O.3       94 DA      0.0000
   1568 C3'       -7.4213     5.0475   276.8140 C.3       94 DA      0.0000
   1569 O3'       -8.3358     3.9331   276.8663 O.3       94 DA      0.0000
   1570 C2'       -6.1033     4.7759   277.5495 C.3       94 DA      0.0000
   1571 C1'       -5.3846     3.9783   276.4719 C.3       94 DA      0.0000
   1572 N9        -3.9426     3.8416   276.7003 N.ar      94 DA      0.0000
   1573 C8        -2.9930     4.7997   276.9160 C.ar      94 DA      0.0000
   1574 N7        -1.7803     4.3202   277.0810 N.ar      94 DA      0.0000
   1575 C5        -1.9425     2.9500   276.9408 C.ar      94 DA      0.0000
   1576 C6        -1.0131     1.8880   276.9888 C.ar      94 DA      0.0000
   1577 N6         0.2951     2.0390   277.2086 N.pl3     94 DA      0.0000
   1578 N1        -1.5416     0.6425   276.7990 N.ar      94 DA      0.0000
   1579 C2        -2.8655     0.4669   276.5812 C.ar      94 DA      0.0000
   1580 N3        -3.7975     1.4173   276.5230 N.ar      94 DA      0.0000
   1581 C4        -3.2596     2.6363   276.7098 C.ar      94 DA      0.0000
   1582 H5'       -6.4509     6.8513   273.9635 H         94 DA      0.0000
   1583 H5''      -8.0124     7.0795   274.8029 H         94 DA      0.0000
   1584 H4'       -7.5726     4.7181   274.7152 H         94 DA      0.0000
   1585 H3'       -7.8972     5.9422   277.2155 H         94 DA      0.0000
   1586 H2'       -5.5757     5.6975   277.7950 H         94 DA      0.0000
   1587 H2''      -6.2693     4.1702   278.4404 H         94 DA      0.0000
   1588 H1'       -5.8444     2.9966   276.3574 H         94 DA      0.0000
   1589 H8        -3.2184     5.8554   276.9481 H         94 DA      0.0000
   1590 H2        -3.2017    -0.5497   276.4399 H         94 DA      0.0000
   1591 H61        0.8020     2.9072   277.1112 H         94 DA      0.0000
   1592 H62        0.9038     1.2515   277.0371 H         94 DA      0.0000
   1593 P         -9.5110     3.8132   278.0078 P.3       95 DA      0.0000
   1594 OP1      -10.8639     3.8035   277.3407 O.co2     95 DA      0.0000
   1595 OP2       -9.2230     5.0000   278.8387 O.co2     95 DA      0.0000
   1596 O5'       -9.3241     2.3204   278.5386 O.3       95 DA      0.0000
   1597 C5'       -9.4719     1.1655   277.7143 C.3       95 DA      0.0000
   1598 C4'       -8.5357     0.0899   278.2366 C.3       95 DA      0.0000
   1599 O4'       -7.2107     0.5401   278.2648 O.3       95 DA      0.0000
   1600 C3'       -8.8386    -0.4981   279.6039 C.3       95 DA      0.0000
   1601 O3'       -9.1521    -1.8885   279.5261 O.3       95 DA      0.0000
   1602 C2'       -7.5944    -0.1557   280.4326 C.3       95 DA      0.0000
   1603 C1'       -6.5117     0.0135   279.4388 C.3       95 DA      0.0000
   1604 N9        -5.3897     0.9314   279.7069 N.ar      95 DA      0.0000
   1605 C8        -5.3764     2.3003   279.8221 C.ar      95 DA      0.0000
   1606 N7        -4.1807     2.8132   279.9914 N.ar      95 DA      0.0000
   1607 C5        -3.3374     1.7073   279.9544 C.ar      95 DA      0.0000
   1608 C6        -1.9234     1.5893   280.0748 C.ar      95 DA      0.0000
   1609 N6        -1.0800     2.5960   280.2664 N.pl3     95 DA      0.0000
   1610 N1        -1.4243     0.3146   279.9766 N.ar      95 DA      0.0000
   1611 C2        -2.2612    -0.7467   279.7876 C.ar      95 DA      0.0000
   1612 N3        -3.5844    -0.7071   279.6797 N.ar      95 DA      0.0000
   1613 C4        -4.0599     0.5510   279.7716 C.ar      95 DA      0.0000
   1614 H5'       -9.2136     1.4115   276.6842 H         95 DA      0.0000
   1615 H5''     -10.5015     0.8106   277.7602 H         95 DA      0.0000
   1616 H4'       -8.5735    -0.7339   277.5239 H         95 DA      0.0000
   1617 H3'       -9.6941     0.0283   280.0271 H         95 DA      0.0000
   1618 H2'       -7.7484     0.7665   280.9929 H         95 DA      0.0000
   1619 H2''      -7.3574    -0.9743   281.1122 H         95 DA      0.0000
   1620 H1'       -6.1076    -0.9684   279.1928 H         95 DA      0.0000
   1621 H8        -6.2721     2.9020   279.7772 H         95 DA      0.0000
   1622 H2        -1.7993    -1.7204   279.7184 H         95 DA      0.0000
   1623 H61       -1.3867     3.5014   280.5926 H         95 DA      0.0000
   1624 H62       -0.0979     2.4518   280.0796 H         95 DA      0.0000
   1625 P        -10.2066    -2.6746   280.4823 P.3       96 DT      0.0000
   1626 OP1      -11.0646    -3.6504   279.6850 O.co2     96 DT      0.0000
   1627 OP2      -10.9480    -1.7401   281.3029 O.co2     96 DT      0.0000
   1628 O5'       -9.2115    -3.7007   281.2960 O.3       96 DT      0.0000
   1629 C5'       -8.1916    -4.2402   280.3509 C.3       96 DT      0.0000
   1630 C4'       -6.9063    -4.2214   281.1386 C.3       96 DT      0.0000
   1631 O4'       -6.3786    -2.9281   281.3306 O.3       96 DT      0.0000
   1632 C3'       -7.0833    -4.7986   282.5552 C.3       96 DT      0.0000
   1633 O3'       -6.6629    -6.1504   282.5569 O.3       96 DT      0.0000
   1634 C2'       -6.2671    -3.8715   283.4525 C.3       96 DT      0.0000
   1635 C1'       -5.4509    -3.1076   282.4878 C.3       96 DT      0.0000
   1636 N1        -4.9480    -1.7861   282.8276 N.am      96 DT      0.0000
   1637 C2        -3.5697    -1.6546   282.9655 C.2       96 DT      0.0000
   1638 O2        -2.8521    -2.6425   282.8775 O.2       96 DT      0.0000
   1639 N3        -3.0632    -0.4158   283.2195 N.am      96 DT      0.0000
   1640 C4        -3.8512     0.6929   283.3397 C.2       96 DT      0.0000
   1641 O4        -3.3035     1.8127   283.5949 O.2       96 DT      0.0000
   1642 C5        -5.2662     0.5370   283.1681 C.2       96 DT      0.0000
   1643 C7        -6.1770     1.7301   283.2556 C.3       96 DT      0.0000
   1644 C6        -5.7603    -0.6866   282.9123 C.2       96 DT      0.0000
   1645 H5'       -8.4445    -5.2567   280.0492 H         96 DT      0.0000
   1646 H5''      -8.1084    -3.5957   279.4759 H         96 DT      0.0000
   1647 H4'       -6.1667    -4.8224   280.6095 H         96 DT      0.0000
   1648 H3'       -8.1342    -4.7454   282.8395 H         96 DT      0.0000
   1649 H2'       -6.9166    -3.2102   284.0259 H         96 DT      0.0000
   1650 H2''      -5.6279    -4.4507   284.1189 H         96 DT      0.0000
   1651 H1'       -4.6133    -3.7288   282.1705 H         96 DT      0.0000
   1652 H3        -2.0638    -0.3131   283.3232 H         96 DT      0.0000
   1653 H6        -6.8243    -0.8058   282.7702 H         96 DT      0.0000
   1654 H71       -5.5883     2.6224   283.4687 H         96 DT      0.0000
   1655 H72       -6.6999     1.8579   282.3078 H         96 DT      0.0000
   1656 H73       -6.9033     1.5750   284.0534 H         96 DT      0.0000
   1657 P         -6.8327    -7.2256   283.6635 P.3       97 DT      0.0000
   1658 OP1       -6.7519    -8.6481   283.0514 O.co2     97 DT      0.0000
   1659 OP2       -8.1538    -6.9704   284.2935 O.co2     97 DT      0.0000
   1660 O5'       -5.4988    -7.1079   284.5458 O.3       97 DT      0.0000
   1661 C5'       -4.3212    -7.5743   283.8341 C.3       97 DT      0.0000
   1662 C4'       -3.1093    -7.0338   284.5102 C.3       97 DT      0.0000
   1663 O4'       -3.0234    -5.6144   284.4869 O.3       97 DT      0.0000
   1664 C3'       -2.9572    -7.4622   285.9768 C.3       97 DT      0.0000
   1665 O3'       -1.6177    -7.8342   286.2409 O.3       97 DT      0.0000
   1666 C2'       -3.2888    -6.1425   286.7132 C.3       97 DT      0.0000
   1667 C1'       -2.5086    -5.2095   285.8096 C.3       97 DT      0.0000
   1668 N1        -2.8092    -3.8213   286.1073 N.am      97 DT      0.0000
   1669 C2        -1.7624    -2.9154   286.1621 C.2       97 DT      0.0000
   1670 O2        -0.6140    -3.3194   285.9737 O.2       97 DT      0.0000
   1671 N3        -2.0532    -1.6070   286.4280 N.am      97 DT      0.0000
   1672 C4        -3.3270    -1.1744   286.6351 C.2       97 DT      0.0000
   1673 O4        -3.5212     0.0547   286.8584 O.2       97 DT      0.0000
   1674 C5        -4.3966    -2.1144   286.5700 C.2       97 DT      0.0000
   1675 C7        -5.8278    -1.7141   286.7799 C.3       97 DT      0.0000
   1676 C6        -4.0930    -3.3954   286.3089 C.2       97 DT      0.0000
   1677 H5'       -4.2928    -8.6638   283.8465 H         97 DT      0.0000
   1678 H5''      -4.3530    -7.2210   282.8033 H         97 DT      0.0000
   1679 H4'       -2.2427    -7.4174   283.9717 H         97 DT      0.0000
   1680 H3'       -3.6556    -8.2569   286.2393 H         97 DT      0.0000
   1681 H2'       -4.3567    -5.9240   286.7119 H         97 DT      0.0000
   1682 H2''      -2.8857    -6.1419   287.7259 H         97 DT      0.0000
   1683 H1'       -1.4381    -5.4002   285.8852 H         97 DT      0.0000
   1684 H3        -1.2974    -0.9385   286.4724 H         97 DT      0.0000
   1685 H6        -4.8938    -4.1180   286.2558 H         97 DT      0.0000
   1686 H71       -5.8809    -0.6437   286.9788 H         97 DT      0.0000
   1687 H72       -6.4047    -1.9460   285.8846 H         97 DT      0.0000
   1688 H73       -6.2377    -2.2621   287.6283 H         97 DT      0.0000
   1689 P         -0.8856    -9.0821   286.8488 P.3       98 DC      0.0000
   1690 OP1       -0.1450    -9.8640   285.7809 O.co2     98 DC      0.0000
   1691 OP2       -1.9257    -9.8248   287.5838 O.co2     98 DC      0.0000
   1692 O5'        0.2445    -8.2449   287.6748 O.3       98 DC      0.0000
   1693 C5'        0.8338    -7.3600   286.6526 C.3       98 DC      0.0000
   1694 C4'        1.8447    -6.4943   287.3491 C.3       98 DC      0.0000
   1695 O4'        1.3700    -5.2071   287.5960 O.3       98 DC      0.0000
   1696 C3'        2.4119    -7.0727   288.6406 C.3       98 DC      0.0000
   1697 O3'        3.8285    -7.1606   288.5609 O.3       98 DC      0.0000
   1698 C2'        1.8019    -6.1402   289.6893 C.3       98 DC      0.0000
   1699 C1'        1.6363    -4.8478   288.9929 C.3       98 DC      0.0000
   1700 N1         0.4464    -4.0580   289.3250 N.am      98 DC      0.0000
   1701 C2         0.6654    -2.7061   289.5808 C.2       98 DC      0.0000
   1702 O2         1.8044    -2.2291   289.5853 O.2       98 DC      0.0000
   1703 N3        -0.4324    -1.9282   289.8546 N.2       98 DC      0.0000
   1704 C4        -1.6936    -2.4475   289.8447 C.2       98 DC      0.0000
   1705 N4        -2.6906    -1.6143   290.1216 N.pl3     98 DC      0.0000
   1706 C5        -1.9017    -3.8164   289.5667 C.2       98 DC      0.0000
   1707 C6        -0.8131    -4.5676   289.3019 C.2       98 DC      0.0000
   1708 H5'        1.3200    -7.9543   285.8789 H         98 DC      0.0000
   1709 H5''       0.0566    -6.7381   286.2084 H         98 DC      0.0000
   1710 H4'        2.6850    -6.3875   286.6631 H         98 DC      0.0000
   1711 H3'        2.0063    -8.0742   288.7838 H         98 DC      0.0000
   1712 H2'        0.8380    -6.5206   290.0272 H         98 DC      0.0000
   1713 H2''       2.4806    -6.0285   290.5349 H         98 DC      0.0000
   1714 H1'        2.5398    -4.2434   289.0739 H         98 DC      0.0000
   1715 H5        -2.8931    -4.2448   289.5661 H         98 DC      0.0000
   1716 H6        -0.9474    -5.6122   289.0629 H         98 DC      0.0000
   1717 H41       -2.4968    -0.6434   290.3208 H         98 DC      0.0000
   1718 H42       -3.6424    -1.9520   290.1329 H         98 DC      0.0000
   1719 P          4.7912    -8.0551   289.5129 P.3       99 DA      0.0000
   1720 OP1        6.0494    -8.3499   288.7192 O.co2     99 DA      0.0000
   1721 OP2        4.0613    -9.2920   289.8585 O.co2     99 DA      0.0000
   1722 O5'        5.0794    -7.0842   290.8099 O.3       99 DA      0.0000
   1723 C5'        5.5794    -5.7440   290.5147 C.3       99 DA      0.0000
   1724 C4'        5.7000    -4.9437   291.7700 C.3       99 DA      0.0000
   1725 O4'        4.6269    -4.0289   292.0121 O.3       99 DA      0.0000
   1726 C3'        5.7342    -5.7562   293.0752 C.3       99 DA      0.0000
   1727 O3'        6.2965    -4.9400   294.1051 O.3       99 DA      0.0000
   1728 C2'        4.2195    -5.9473   293.2898 C.3       99 DA      0.0000
   1729 C1'        3.8304    -4.4764   293.1065 C.3       99 DA      0.0000
   1730 N9         2.3841    -4.3721   293.0122 N.ar      99 DA      0.0000
   1731 C8         1.4270    -5.3418   292.8964 C.ar      99 DA      0.0000
   1732 N7         0.1828    -4.8983   292.8778 N.ar      99 DA      0.0000
   1733 C5         0.3358    -3.5232   292.9853 C.ar      99 DA      0.0000
   1734 C6        -0.6039    -2.4635   293.0198 C.ar      99 DA      0.0000
   1735 N6        -1.9127    -2.6200   292.9346 N.pl3     99 DA      0.0000
   1736 N1        -0.0879    -1.2063   293.1524 N.ar      99 DA      0.0000
   1737 C2         1.2633    -0.9979   293.2326 C.ar      99 DA      0.0000
   1738 N3         2.2048    -1.9381   293.2028 N.ar      99 DA      0.0000
   1739 C4         1.6746    -3.1797   293.0797 C.ar      99 DA      0.0000
   1740 H5'        6.5591    -5.8223   290.0435 H         99 DA      0.0000
   1741 H5''       4.8907    -5.2443   289.8334 H         99 DA      0.0000
   1742 H4'        6.6232    -4.3674   291.7111 H         99 DA      0.0000
   1743 H3'        6.2609    -6.7038   292.9616 H         99 DA      0.0000
   1744 H2'        3.7687    -6.5963   292.5390 H         99 DA      0.0000
   1745 H2''       4.0007    -6.2944   294.2997 H         99 DA      0.0000
   1746 H1'        4.1480    -3.9327   293.9962 H         99 DA      0.0000
   1747 H8         1.6700    -6.3917   292.8254 H         99 DA      0.0000
   1748 H2         1.5959     0.0251   293.3291 H         99 DA      0.0000
   1749 H61       -2.7061    -2.0214   293.1146 H         99 DA      0.0000
   1750 H62       -2.1790    -3.5420   292.6199 H         99 DA      0.0000
   1751 P          7.8786    -4.7465   294.2456 P.3      100 DC      0.0000
   1752 OP1        8.6247    -5.0845   293.0005 O.co2    100 DC      0.0000
   1753 OP2        8.2099    -5.6620   295.3885 O.co2    100 DC      0.0000
   1754 O5'        8.0322    -3.1938   294.5288 O.3      100 DC      0.0000
   1755 C5'        8.0155    -2.2204   293.4411 C.3      100 DC      0.0000
   1756 C4'        7.4512    -0.9817   294.1460 C.3      100 DC      0.0000
   1757 O4'        6.1045    -1.2528   294.4580 O.3      100 DC      0.0000
   1758 C3'        8.1581    -0.6434   295.4559 C.3      100 DC      0.0000
   1759 O3'        8.5877     0.7352   295.5238 O.3      100 DC      0.0000
   1760 C2'        7.1329    -1.0142   296.5381 C.3      100 DC      0.0000
   1761 C1'        5.8474    -0.7580   295.8619 C.3      100 DC      0.0000
   1762 N1         4.6392    -1.4990   296.2148 N.am     100 DC      0.0000
   1763 C2         3.4601    -0.7565   296.1879 C.2      100 DC      0.0000
   1764 O2         3.4430     0.4504   295.9810 O.2      100 DC      0.0000
   1765 N3         2.2991    -1.4182   296.4410 N.2      100 DC      0.0000
   1766 C4         2.2578    -2.7523   296.6744 C.2      100 DC      0.0000
   1767 N4         1.0603    -3.2871   296.9053 N.pl3    100 DC      0.0000
   1768 C5         3.4664    -3.5016   296.6809 C.2      100 DC      0.0000
   1769 C6         4.6082    -2.8419   296.4315 C.2      100 DC      0.0000
   1770 H5'        9.0186    -2.0368   293.0562 H        100 DC      0.0000
   1771 H5''       7.3495    -2.5464   292.6420 H        100 DC      0.0000
   1772 H4'        7.5032    -0.1256   293.4733 H        100 DC      0.0000
   1773 H3'        9.0301    -1.2889   295.5618 H        100 DC      0.0000
   1774 H2'        7.2248    -2.0617   296.8251 H        100 DC      0.0000
   1775 H2''       7.2436    -0.3673   297.4084 H        100 DC      0.0000
   1776 H1'        5.6390     0.3119   295.8487 H        100 DC      0.0000
   1777 H5         3.4655    -4.5632   296.8794 H        100 DC      0.0000
   1778 H6         5.5346    -3.3962   296.4018 H        100 DC      0.0000
   1779 H41        0.2360    -2.7036   296.8942 H        100 DC      0.0000
   1780 H42        0.9764    -4.2763   297.0914 H        100 DC      0.0000
   1781 P         -8.4642     0.6355   298.4833 P.3      100 DG      0.0000
   1782 OP1       -9.9484     0.6799   298.6621 O.co2    100 DG      0.0000
   1783 OP2       -8.0229    -0.3381   297.3985 O.co2    100 DG      0.0000
   1784 O5'       -7.8936     2.1655   298.2761 O.3      100 DG      0.0000
   1785 C5'       -7.1627     2.8096   299.3719 C.3      100 DG      0.0000
   1786 C4'       -6.0337     3.6188   298.7376 C.3      100 DG      0.0000
   1787 O4'       -4.8471     2.8791   298.6418 O.3      100 DG      0.0000
   1788 C3'       -6.3356     4.1296   297.3312 C.3      100 DG      0.0000
   1789 O3'       -5.8506     5.4658   297.0643 O.3      100 DG      0.0000
   1790 C2'       -5.6479     3.0892   296.4290 C.3      100 DG      0.0000
   1791 C1'       -4.4109     2.7719   297.2528 C.3      100 DG      0.0000
   1792 N9        -3.9273     1.4078   296.9795 N.ar     100 DG      0.0000
   1793 C8        -4.6716     0.2628   296.8228 C.ar     100 DG      0.0000
   1794 N7        -3.9572    -0.8092   296.6044 N.ar     100 DG      0.0000
   1795 C5        -2.6480    -0.3431   296.6292 C.ar     100 DG      0.0000
   1796 C6        -1.4088    -1.0195   296.4727 C.2      100 DG      0.0000
   1797 O6        -1.2474    -2.2323   296.2759 O.2      100 DG      0.0000
   1798 N1        -0.3060    -0.2060   296.5596 N.am     100 DG      0.0000
   1799 C2        -0.3964     1.1285   296.7803 C.2      100 DG      0.0000
   1800 N2         0.7573     1.7876   296.8437 N.pl3    100 DG      0.0000
   1801 N3        -1.5358     1.8132   296.9380 N.2      100 DG      0.0000
   1802 C4        -2.6174     1.0144   296.8548 C.ar     100 DG      0.0000
   1803 H5'       -7.8282     3.4685   299.9296 H        100 DG      0.0000
   1804 H5''      -6.7478     2.0521   300.0368 H        100 DG      0.0000
   1805 H4'       -5.8407     4.4821   299.3743 H        100 DG      0.0000
   1806 H3'       -7.4117     4.0975   297.1608 H        100 DG      0.0000
   1807 H2'       -6.2719     2.2070   296.2863 H        100 DG      0.0000
   1808 H2''      -5.3729     3.5288   295.4702 H        100 DG      0.0000
   1809 H1'       -3.6249     3.4986   297.0475 H        100 DG      0.0000
   1810 H8        -5.7502     0.2503   296.8756 H        100 DG      0.0000
   1811 H1         0.6098    -0.6187   296.4549 H        100 DG      0.0000
   1812 H21        1.6294     1.2914   296.7286 H        100 DG      0.0000
   1813 H22        0.7611     2.7844   297.0068 H        100 DG      0.0000
   1814 P         -5.4569     5.7692   295.5408 P.3       99 DT      0.0000
   1815 OP1       -5.6137     7.2141   295.1499 O.co2     99 DT      0.0000
   1816 OP2       -6.4453     4.9127   294.8402 O.co2     99 DT      0.0000
   1817 O5'       -3.9223     5.3275   295.4099 O.3       99 DT      0.0000
   1818 C5'       -2.9154     6.3554   295.6775 C.3       99 DT      0.0000
   1819 C4'       -1.6547     5.9985   294.9205 C.3       99 DT      0.0000
   1820 O4'       -1.4031     4.6048   294.8932 O.3       99 DT      0.0000
   1821 C3'       -1.6874     6.4410   293.4658 C.3       99 DT      0.0000
   1822 O3'       -0.4214     6.9286   292.9706 O.3       99 DT      0.0000
   1823 C2'       -2.1303     5.1882   292.7429 C.3       99 DT      0.0000
   1824 C1'       -1.3298     4.1571   293.5210 C.3       99 DT      0.0000
   1825 N1        -2.0322     2.8732   293.3697 N.am      99 DT      0.0000
   1826 C2        -1.2495     1.7281   293.4765 C.2       99 DT      0.0000
   1827 O2        -0.0411     1.8166   293.6662 O.2       99 DT      0.0000
   1828 N3        -1.8853     0.5241   293.3563 N.am      99 DT      0.0000
   1829 C4        -3.2276     0.4361   293.1387 C.2       99 DT      0.0000
   1830 O4        -3.7313    -0.7316   293.0412 O.2       99 DT      0.0000
   1831 C5        -4.0027     1.6262   293.0323 C.2       99 DT      0.0000
   1832 C7        -5.4846     1.5411   292.8034 C.3       99 DT      0.0000
   1833 C6        -3.3765     2.7994   293.1541 C.2       99 DT      0.0000
   1834 H5'       -3.2827     7.3259   295.3438 H         99 DT      0.0000
   1835 H5''      -2.7035     6.3914   296.7461 H         99 DT      0.0000
   1836 H4'       -0.8123     6.4887   295.4084 H         99 DT      0.0000
   1837 H3'       -2.4447     7.2150   293.3418 H         99 DT      0.0000
   1838 H2'       -3.2039     5.0236   292.8345 H         99 DT      0.0000
   1839 H2''      -1.8258     5.2118   291.6965 H         99 DT      0.0000
   1840 H1'       -0.2994     4.0974   293.1704 H         99 DT      0.0000
   1841 H3        -1.3443    -0.3255   293.4310 H         99 DT      0.0000
   1842 H6        -3.9489     3.7122   293.0800 H         99 DT      0.0000
   1843 H71       -5.7826     0.4949   292.7347 H         99 DT      0.0000
   1844 H72       -6.0081     2.0139   293.6343 H         99 DT      0.0000
   1845 H73       -5.7388     2.0530   291.8753 H         99 DT      0.0000
   1846 P         -0.7214     8.3634   292.1923 P.3       98 DG      0.0000
   1847 OP1       -0.5327     9.5624   293.0635 O.co2     98 DG      0.0000
   1848 OP2       -2.1252     8.1032   291.7867 O.co2     98 DG      0.0000
   1849 O5'        0.4561     8.3596   291.1114 O.3       98 DG      0.0000
   1850 C5'        1.7952     8.7208   291.5349 C.3       98 DG      0.0000
   1851 C4'        2.6720     7.5581   291.0872 C.3       98 DG      0.0000
   1852 O4'        2.0151     6.3360   291.3579 O.3       98 DG      0.0000
   1853 C3'        3.0234     7.5698   289.5994 C.3       98 DG      0.0000
   1854 O3'        4.4241     7.5458   289.3909 O.3       98 DG      0.0000
   1855 C2'        2.2561     6.3933   289.0227 C.3       98 DG      0.0000
   1856 C1'        2.1239     5.4676   290.2089 C.3       98 DG      0.0000
   1857 N9         0.9312     4.6253   290.0853 N.ar      98 DG      0.0000
   1858 C8        -0.3688     5.0140   289.9264 C.ar      98 DG      0.0000
   1859 N7        -1.2127     4.0141   289.8484 N.ar      98 DG      0.0000
   1860 C5        -0.4118     2.8841   289.9859 C.ar      98 DG      0.0000
   1861 C6        -0.7222     1.4987   289.9954 C.2       98 DG      0.0000
   1862 O6        -1.8332     0.9878   289.8963 O.2       98 DG      0.0000
   1863 N1         0.3575     0.6753   290.1443 N.am      98 DG      0.0000
   1864 C2         1.6350     1.1633   290.2772 C.2       98 DG      0.0000
   1865 N2         2.5963     0.2493   290.4129 N.pl3     98 DG      0.0000
   1866 N3         1.9947     2.4508   290.2815 N.2       98 DG      0.0000
   1867 C4         0.9144     3.2545   290.1308 C.ar      98 DG      0.0000
   1868 H5'        2.1124     9.6472   291.0562 H         98 DG      0.0000
   1869 H5''       1.8323     8.8250   292.6192 H         98 DG      0.0000
   1870 H4'        3.5988     7.5851   291.6602 H         98 DG      0.0000
   1871 H3'        2.6272     8.4856   289.1609 H         98 DG      0.0000
   1872 H2'        1.2778     6.7042   288.6564 H         98 DG      0.0000
   1873 H2''       2.8286     5.9163   288.2272 H         98 DG      0.0000
   1874 H1'        3.0136     4.8438   290.2959 H         98 DG      0.0000
   1875 H8        -0.6729     6.0488   289.8703 H         98 DG      0.0000
   1876 H1         0.2121    -0.3240   290.1572 H         98 DG      0.0000
   1877 H21        2.3625    -0.7332   290.4139 H         98 DG      0.0000
   1878 H22        3.5582     0.5396   290.5147 H         98 DG      0.0000
   1879 P          5.4114     6.6672   288.5246 P.3       97 DA      0.0000
   1880 OP1        6.7040     6.3994   289.3060 O.co2     97 DA      0.0000
   1881 OP2        5.6915     7.4698   287.3319 O.co2     97 DA      0.0000
   1882 O5'        4.6938     5.2151   288.3498 O.3       97 DA      0.0000
   1883 C5'        4.9581     4.3352   289.5063 C.3       97 DA      0.0000
   1884 C4'        5.7285     3.1503   288.9785 C.3       97 DA      0.0000
   1885 O4'        4.9081     2.0315   288.7562 O.3       97 DA      0.0000
   1886 C3'        6.4069     3.4299   287.6380 C.3       97 DA      0.0000
   1887 O3'        7.7016     2.8828   287.5628 O.3       97 DA      0.0000
   1888 C2'        5.3732     2.9369   286.6414 C.3       97 DA      0.0000
   1889 C1'        4.5345     1.9208   287.3653 C.3       97 DA      0.0000
   1890 N9         3.0960     2.1430   287.1398 N.ar      97 DA      0.0000
   1891 C8         2.4218     3.3304   286.9534 C.ar      97 DA      0.0000
   1892 N7         1.1304     3.1949   286.7575 N.ar      97 DA      0.0000
   1893 C5         0.9381     1.8217   286.8444 C.ar      97 DA      0.0000
   1894 C6        -0.2307     1.0321   286.7387 C.ar      97 DA      0.0000
   1895 N6        -1.4368     1.5282   286.5262 N.pl3     97 DA      0.0000
   1896 N1        -0.0577    -0.3129   286.8624 N.ar      97 DA      0.0000
   1897 C2         1.1764    -0.8533   287.0870 C.ar      97 DA      0.0000
   1898 N3         2.3120    -0.1680   287.2028 N.ar      97 DA      0.0000
   1899 C4         2.1274     1.1675   287.0667 C.ar      97 DA      0.0000
   1900 H5'        5.5483     4.8645   290.2544 H         97 DA      0.0000
   1901 H5''       4.0166     4.0020   289.9430 H         97 DA      0.0000
   1902 H4'        6.4941     2.8811   289.7062 H         97 DA      0.0000
   1903 H3'        6.4926     4.5107   287.5249 H         97 DA      0.0000
   1904 H2'        5.8655     2.4771   285.7845 H         97 DA      0.0000
   1905 H2''       4.7492     3.7672   286.3109 H         97 DA      0.0000
   1906 H1'        4.7983     0.9258   287.0071 H         97 DA      0.0000
   1907 H8         2.9140     4.2916   286.9673 H         97 DA      0.0000
   1908 H2         1.2362    -1.9277   287.1782 H         97 DA      0.0000
   1909 H61       -2.2645     1.0428   286.8417 H         97 DA      0.0000
   1910 H62       -1.5327     2.4083   286.0400 H         97 DA      0.0000
   1911 P          8.4703     2.1739   286.3782 P.3       96 DA      0.0000
   1912 OP1        9.7788     1.5100   286.8981 O.co2     96 DA      0.0000
   1913 OP2        8.8278     3.2870   285.4445 O.co2     96 DA      0.0000
   1914 O5'        7.5670     0.9851   285.8755 O.3       96 DA      0.0000
   1915 C5'        7.8254    -0.3590   286.3314 C.3       96 DA      0.0000
   1916 C4'        6.8343    -1.2616   285.6294 C.3       96 DA      0.0000
   1917 O4'        5.5492    -0.7216   285.5087 O.3       96 DA      0.0000
   1918 C3'        7.2698    -1.6667   284.2219 C.3       96 DA      0.0000
   1919 O3'        7.5328    -3.0822   284.1905 O.3       96 DA      0.0000
   1920 C2'        6.1636    -1.1123   283.3223 C.3       96 DA      0.0000
   1921 C1'        4.9637    -1.1036   284.2201 C.3       96 DA      0.0000
   1922 N9         3.9338    -0.1142   283.9205 N.ar      96 DA      0.0000
   1923 C8         4.0596     1.2457   283.7258 C.ar      96 DA      0.0000
   1924 N7         2.9160     1.8600   283.5203 N.ar      96 DA      0.0000
   1925 C5         1.9734     0.8531   283.5949 C.ar      96 DA      0.0000
   1926 C6         0.5668     0.8658   283.4614 C.ar      96 DA      0.0000
   1927 N6        -0.1441     1.9627   283.2182 N.pl3     96 DA      0.0000
   1928 N1        -0.0450    -0.3530   283.6102 N.ar      96 DA      0.0000
   1929 C2         0.6482    -1.4799   283.8627 C.ar      96 DA      0.0000
   1930 N3         1.9745    -1.5678   284.0016 N.ar      96 DA      0.0000
   1931 C4         2.5745    -0.3656   283.8544 C.ar      96 DA      0.0000
   1932 H5'        8.8439    -0.6515   286.0762 H         96 DA      0.0000
   1933 H5''       7.6817    -0.4187   287.4102 H         96 DA      0.0000
   1934 H4'        6.7500    -2.1741   286.2195 H         96 DA      0.0000
   1935 H3'        8.1959    -1.1421   283.9869 H         96 DA      0.0000
   1936 H2'        6.4046    -0.1051   282.9824 H         96 DA      0.0000
   1937 H2''       5.9980    -1.7725   282.4710 H         96 DA      0.0000
   1938 H1'        4.5271    -2.1005   284.2812 H         96 DA      0.0000
   1939 H8         5.0101     1.7583   283.7407 H         96 DA      0.0000
   1940 H2         0.0817    -2.3940   283.9618 H         96 DA      0.0000
   1941 H61       -1.1096     1.9251   283.5122 H         96 DA      0.0000
   1942 H62        0.2534     2.7763   282.7709 H         96 DA      0.0000
   1943 P          7.9981    -3.7585   282.8055 P.3       95 DT      0.0000
   1944 OP1        8.5659    -5.1432   282.8636 O.co2     95 DT      0.0000
   1945 OP2        8.9275    -2.7058   282.2929 O.co2     95 DT      0.0000
   1946 O5'        6.4936    -3.8998   282.1023 O.3       95 DT      0.0000
   1947 C5'        5.5393    -4.3416   283.1147 C.3       95 DT      0.0000
   1948 C4'        4.3723    -4.9800   282.4317 C.3       95 DT      0.0000
   1949 O4'        3.2901    -4.1163   282.2513 O.3       95 DT      0.0000
   1950 C3'        4.6972    -5.5754   281.0705 C.3       95 DT      0.0000
   1951 O3'        3.9872    -6.7910   280.8032 O.3       95 DT      0.0000
   1952 C2'        4.3165    -4.3876   280.1771 C.3       95 DT      0.0000
   1953 C1'        3.0253    -3.9243   280.8171 C.3       95 DT      0.0000
   1954 N1         2.8006    -2.4847   280.5872 N.am      95 DT      0.0000
   1955 C2         1.4913    -2.0537   280.4655 C.2       95 DT      0.0000
   1956 O2         0.5523    -2.8504   280.5023 O.2       95 DT      0.0000
   1957 N3         1.2694    -0.7137   280.2981 N.am      95 DT      0.0000
   1958 C4         2.2901     0.1838   280.2496 C.2       95 DT      0.0000
   1959 O4         1.9937     1.4018   280.0641 O.2       95 DT      0.0000
   1960 C5         3.6280    -0.2778   280.3980 C.2       95 DT      0.0000
   1961 C7         4.7865     0.6897   280.3459 C.3       95 DT      0.0000
   1962 C6         3.8276    -1.5886   280.5710 C.2       95 DT      0.0000
   1963 H5'        6.0163    -5.0643   283.7767 H         95 DT      0.0000
   1964 H5''       5.1988    -3.4839   283.6947 H         95 DT      0.0000
   1965 H4'        4.0318    -5.7963   283.0687 H         95 DT      0.0000
   1966 H3'        5.7696    -5.7564   280.9984 H         95 DT      0.0000
   1967 H2'        5.0772    -3.6076   280.2077 H         95 DT      0.0000
   1968 H2''       4.1425    -4.7162   279.1525 H         95 DT      0.0000
   1969 H1'        2.1761    -4.5206   280.4832 H         95 DT      0.0000
   1970 H3         0.3198    -0.3815   280.2080 H         95 DT      0.0000
   1971 H6         4.8370    -1.9496   280.7024 H         95 DT      0.0000
   1972 H71        5.2079     0.6989   279.3407 H         95 DT      0.0000
   1973 H72        5.5514     0.3788   281.0575 H         95 DT      0.0000
   1974 H73        4.4366     1.6896   280.6024 H         95 DT      0.0000
   1975 P          4.2101    -7.4273   279.3133 P.3       94 DT      0.0000
   1976 OP1        4.9449    -8.7609   279.4612 O.co2     94 DT      0.0000
   1977 OP2        5.1081    -6.4271   278.6434 O.co2     94 DT      0.0000
   1978 O5'        2.8141    -7.5960   278.6612 O.3       94 DT      0.0000
   1979 C5'        1.6250    -7.8403   279.4126 C.3       94 DT      0.0000
   1980 C4'        0.4697    -7.2562   278.6646 C.3       94 DT      0.0000
   1981 O4'        0.3471    -5.8607   278.6076 O.3       94 DT      0.0000
   1982 C3'        0.2731    -7.6992   277.1986 C.3       94 DT      0.0000
   1983 O3'       -1.1539    -7.7055   277.0948 O.3       94 DT      0.0000
   1984 C2'        0.9012    -6.5259   276.4348 C.3       94 DT      0.0000
   1985 C1'        0.2238    -5.4147   277.2105 C.3       94 DT      0.0000
   1986 N1         0.8435    -4.0907   277.1044 N.am      94 DT      0.0000
   1987 C2        -0.0473    -3.0089   277.1038 C.2       94 DT      0.0000
   1988 O2        -1.2661    -3.1884   277.1468 O.2       94 DT      0.0000
   1989 N3         0.4958    -1.7574   277.0503 N.am      94 DT      0.0000
   1990 C4         1.8400    -1.5382   276.9906 C.2       94 DT      0.0000
   1991 O4         2.2454    -0.3386   276.9282 O.2       94 DT      0.0000
   1992 C5         2.7211    -2.6537   276.9988 C.2       94 DT      0.0000
   1993 C7         4.2168    -2.4247   276.9374 C.3       94 DT      0.0000
   1994 C6         2.1855    -3.8761   277.0653 C.2       94 DT      0.0000
   1995 H5'        1.4802    -8.9136   279.5348 H         94 DT      0.0000
   1996 H5''       1.7056    -7.3670   280.3912 H         94 DT      0.0000
   1997 H4'       -0.4193    -7.6022   279.1919 H         94 DT      0.0000
   1998 H3'        0.7303    -8.6619   276.9699 H         94 DT      0.0000
   1999 H2'        0.6293    -6.5226   275.3792 H         94 DT      0.0000
   2000 H2''       1.9829    -6.4999   276.5664 H         94 DT      0.0000
   2001 H1'       -0.8282    -5.3554   276.9315 H         94 DT      0.0000
   2002 H3        -0.1245    -0.9604   277.0552 H         94 DT      0.0000
   2003 H6         2.8466    -4.7297   277.0890 H         94 DT      0.0000
   2004 H71        4.4195    -1.3548   276.8886 H         94 DT      0.0000
   2005 H72        4.6226    -2.9119   276.0508 H         94 DT      0.0000
   2006 H73        4.6853    -2.8429   277.8283 H         94 DT      0.0000
   2007 P         -2.0014    -8.3207   275.9486 P.3       93 DC      0.0000
   2008 OP1       -3.1073    -9.1845   276.5577 O.co2     93 DC      0.0000
   2009 OP2       -1.0621    -9.1844   275.1667 O.co2     93 DC      0.0000
   2010 O5'       -2.5518    -6.9774   275.2092 O.3       93 DC      0.0000
   2011 C5'       -3.6051    -6.2612   275.9337 C.3       93 DC      0.0000
   2012 C4'       -4.5107    -5.6727   274.8832 C.3       93 DC      0.0000
   2013 O4'       -4.2310    -4.3141   274.6379 O.3       93 DC      0.0000
   2014 C3'       -4.4612    -6.3623   273.5187 C.3       93 DC      0.0000
   2015 O3'       -5.7021    -6.3703   272.8095 O.3       93 DC      0.0000
   2016 C2'       -3.3495    -5.5565   272.8326 C.3       93 DC      0.0000
   2017 C1'       -3.5784    -4.1487   273.3792 C.3       93 DC      0.0000
   2018 N1        -2.2589    -3.4847   273.4970 N.am      93 DC      0.0000
   2019 C2        -2.2504    -2.0907   273.5142 C.2       93 DC      0.0000
   2020 O2        -3.3039    -1.4429   273.4456 O.2       93 DC      0.0000
   2021 N3        -1.0333    -1.4730   273.6175 N.2       93 DC      0.0000
   2022 C4         0.1287    -2.1737   273.6882 C.2       93 DC      0.0000
   2023 N4         1.2911    -1.5256   273.7902 N.pl3     93 DC      0.0000
   2024 C5         0.0918    -3.5958   273.6631 C.2       93 DC      0.0000
   2025 C6        -1.1042    -4.2018   273.5695 C.2       93 DC      0.0000
   2026 H5'       -4.1615    -6.9497   276.5696 H         93 DC      0.0000
   2027 H5''      -3.1681    -5.4659   276.5376 H         93 DC      0.0000
   2028 H4'       -5.5342    -5.7396   275.2519 H         93 DC      0.0000
   2029 H3'       -4.1231    -7.3897   273.6529 H         93 DC      0.0000
   2030 H2'       -3.4573    -5.5806   271.7482 H         93 DC      0.0000
   2031 H2''      -2.3684    -5.9279   273.1286 H         93 DC      0.0000
   2032 H1'       -4.2184    -3.5857   272.6998 H         93 DC      0.0000
   2033 H5         1.0023    -4.1741   273.7179 H         93 DC      0.0000
   2034 H6        -1.1501    -5.2807   273.5514 H         93 DC      0.0000
   2035 H41        1.3063    -0.5159   273.8108 H         93 DC      0.0000
   2036 H42        2.1556    -2.0448   273.8465 H         93 DC      0.0000
   2037 P         -5.8821    -6.2210   271.1774 P.3       92 DA      0.0000
   2038 OP1       -7.2095    -6.8348   270.7880 O.co2     92 DA      0.0000
   2039 OP2       -4.6879    -6.9019   270.6074 O.co2     92 DA      0.0000
   2040 O5'       -5.9985    -4.6375   271.0119 O.3       92 DA      0.0000
   2041 C5'       -7.2422    -3.9830   271.4773 C.3       92 DA      0.0000
   2042 C4'       -7.2870    -2.7435   270.6001 C.3       92 DA      0.0000
   2043 O4'       -6.1451    -1.9196   270.8674 O.3       92 DA      0.0000
   2044 C3'       -7.1966    -3.0555   269.0957 C.3       92 DA      0.0000
   2045 O3'       -7.6125    -1.9523   268.3066 O.3       92 DA      0.0000
   2046 C2'       -5.6704    -3.1360   268.9082 C.3       92 DA      0.0000
   2047 C1'       -5.3747    -1.8111   269.6629 C.3       92 DA      0.0000
   2048 N9        -3.9228    -1.7900   269.8083 N.ar      92 DA      0.0000
   2049 C8        -3.0914    -2.8852   269.8811 C.ar      92 DA      0.0000
   2050 N7        -1.8256    -2.5700   269.9958 N.ar      92 DA      0.0000
   2051 C5        -1.8344    -1.1637   269.9894 C.ar      92 DA      0.0000
   2052 C6        -0.7713    -0.2246   270.0893 C.ar      92 DA      0.0000
   2053 N6         0.5142    -0.5676   270.2122 N.pl3     92 DA      0.0000
   2054 N1        -1.1664     1.0788   270.0542 N.ar      92 DA      0.0000
   2055 C2        -2.4709     1.4274   269.9353 C.ar      92 DA      0.0000
   2056 N3        -3.5167     0.6008   269.8438 N.ar      92 DA      0.0000
   2057 C4        -3.1147    -0.6819   269.8714 C.ar      92 DA      0.0000
   2058 H5'       -8.1117    -4.6188   271.3106 H         92 DA      0.0000
   2059 H5''      -7.1622    -3.7078   272.5290 H         92 DA      0.0000
   2060 H4'       -8.1993    -2.1829   270.8040 H         92 DA      0.0000
   2061 H3'       -7.7039    -3.9818   268.8260 H         92 DA      0.0000
   2062 H2'       -5.2279    -4.0079   269.3898 H         92 DA      0.0000
   2063 H2''      -5.3901    -3.0715   267.8568 H         92 DA      0.0000
   2064 H1'       -5.7093    -0.9568   269.0744 H         92 DA      0.0000
   2065 H8        -3.4482    -3.9040   269.8471 H         92 DA      0.0000
   2066 H2        -2.6879     2.4851   269.9121 H         92 DA      0.0000
   2067 H61        0.7766    -1.5426   270.2369 H         92 DA      0.0000
   2068 H62        1.2236     0.1481   270.2803 H         92 DA      0.0000
   2069 P         -8.7018    -2.1350   267.1657 P.3       91 DC      0.0000
   2070 OP1      -10.0026    -2.0427   267.9460 O.co2     91 DC      0.0000
   2071 OP2       -8.5545    -3.4017   266.4401 O.co2     91 DC      0.0000
   2072 O5'       -8.3343    -0.8634   266.1898 O.3       91 DC      0.0000
   2073 C5'       -8.2545     0.4530   266.8589 C.3       91 DC      0.0000
   2074 C4'       -7.1512     1.2503   266.2148 C.3       91 DC      0.0000
   2075 O4'       -5.8884     1.1006   266.8520 O.3       91 DC      0.0000
   2076 C3'       -6.9321     0.8838   264.7370 C.3       91 DC      0.0000
   2077 O3'       -6.5215     1.9773   263.9257 O.3       91 DC      0.0000
   2078 C2'       -5.7339    -0.1075   264.9026 C.3       91 DC      0.0000
   2079 C1'       -4.9231     0.9001   265.7982 C.3       91 DC      0.0000
   2080 N1        -3.6331     0.3073   266.0361 N.am      91 DC      0.0000
   2081 C2        -2.5720     1.1398   266.3533 C.2       91 DC      0.0000
   2082 O2        -2.5461     2.3677   266.4937 O.2       91 DC      0.0000
   2083 N3        -1.3456     0.5687   266.5515 N.2       91 DC      0.0000
   2084 C4        -1.1469    -0.7796   266.4355 C.2       91 DC      0.0000
   2085 N4         0.0729    -1.2962   266.6516 N.pl3     91 DC      0.0000
   2086 C5        -2.2452    -1.6210   266.1059 C.2       91 DC      0.0000
   2087 C6        -3.4348    -1.0389   265.9142 C.2       91 DC      0.0000
   2088 H5'       -9.2021     0.9800   266.7474 H         91 DC      0.0000
   2089 H5''      -8.0355     0.3131   267.9174 H         91 DC      0.0000
   2090 H4'       -7.4275     2.3036   266.2616 H         91 DC      0.0000
   2091 H3'       -7.8056     0.3844   264.3180 H         91 DC      0.0000
   2092 H2'       -6.0016    -1.0289   265.4198 H         91 DC      0.0000
   2093 H2''      -5.2333    -0.3033   263.9544 H         91 DC      0.0000
   2094 H1'       -4.7910     1.8349   265.2533 H         91 DC      0.0000
   2095 H5        -2.1236    -2.6902   266.0137 H         91 DC      0.0000
   2096 H6        -4.2767    -1.6620   265.6509 H         91 DC      0.0000
   2097 H41        0.8432    -0.6889   266.8921 H         91 DC      0.0000
   2098 H42        0.2205    -2.2923   266.5736 H         91 DC      0.0000
@<TRIPOS>BOND
     1      9     31 1
     2     39     63 1
     3    101    126 1
     4    134    158 1
     5      1      2 1
     6      1      3 1
     7      1      4 1
     8      4      5 1
     9      5      6 1
    10      6      7 1
    11      6      8 1
    12      7     11 1
    13      8      9 1
    14      8     10 1
    15     10     11 1
    16     11     12 1
    17     12     13 am
    18     12     19 1
    19     13     14 2
    20     13     15 1
    21     15     16 2
    22     16     17 2
    23     16     18 2
    24     18     19 2
    25     31     32 1
    26     31     33 1
    27     31     34 1
    28     34     35 1
    29     35     36 1
    30     36     37 1
    31     36     38 1
    32     37     41 1
    33     38     39 1
    34     38     40 1
    35     40     41 1
    36     41     42 1
    37     42     43 ar
    38     42     51 ar
    39     43     44 ar
    40     44     45 ar
    41     45     46 ar
    42     45     51 ar
    43     46     47 1
    44     46     48 ar
    45     48     49 ar
    46     49     50 ar
    47     50     51 ar
    48     63     64 1
    49     63     65 1
    50     63     66 1
    51     66     67 1
    52     67     68 1
    53     68     69 1
    54     68     70 1
    55     69     73 1
    56     70     71 1
    57     70     72 1
    58     72     73 1
    59     73     74 1
    60     74     75 am
    61     74     81 1
    62     75     76 2
    63     75     77 1
    64     77     78 2
    65     78     79 2
    66     78     80 2
    67     80     81 2
    68     93     94 1
    69     93     95 1
    70     93     96 1
    71     96     97 1
    72     97     98 1
    73     98     99 1
    74     98    100 1
    75     99    103 1
    76    100    101 1
    77    100    102 1
    78    102    103 1
    79    103    104 1
    80    104    105 ar
    81    104    114 ar
    82    105    106 ar
    83    106    107 ar
    84    107    108 1
    85    107    114 ar
    86    108    109 2
    87    108    110 am
    88    110    111 1
    89    111    112 2
    90    111    113 2
    91    113    114 1
    92    126    127 1
    93    126    128 1
    94    126    129 1
    95    129    130 1
    96    130    131 1
    97    131    132 1
    98    131    133 1
    99    132    136 1
   100    133    134 1
   101    133    135 1
   102    135    136 1
   103    136    137 1
   104    137    138 am
   105    137    145 1
   106    138    139 2
   107    138    140 am
   108    140    141 am
   109    141    142 2
   110    141    143 1
   111    143    144 1
   112    143    145 2
   113    158    159 1
   114    158    160 1
   115    158    161 1
   116    161    162 1
   117    162    163 1
   118    163    164 1
   119    163    165 1
   120    164    168 1
   121    165    166 1
   122    165    167 1
   123    167    168 1
   124    168    169 1
   125    169    170 ar
   126    169    179 ar
   127    170    171 ar
   128    171    172 ar
   129    172    173 1
   130    172    179 ar
   131    173    174 2
   132    173    175 am
   133    175    176 1
   134    176    177 2
   135    176    178 2
   136    178    179 1
   137     20      5 1
   138     21      5 1
   139     22      6 1
   140     23      8 1
   141     24     10 1
   142     25     10 1
   143     26     11 1
   144     27     18 1
   145     28     19 1
   146     52     35 1
   147     53     35 1
   148     54     36 1
   149     55     38 1
   150     56     40 1
   151     57     40 1
   152     58     41 1
   153     59     43 1
   154     60     49 1
   155     82     67 1
   156     83     67 1
   157     84     68 1
   158     85     70 1
   159     86     72 1
   160     87     72 1
   161     88     73 1
   162     89     80 1
   163     90     81 1
   164    115     97 1
   165    116     97 1
   166    117     98 1
   167    118    100 1
   168    119    102 1
   169    120    102 1
   170    121    103 1
   171    122    105 1
   172    123    110 1
   173    146    130 1
   174    147    130 1
   175    148    131 1
   176    149    133 1
   177    150    135 1
   178    151    135 1
   179    152    136 1
   180    153    140 1
   181    154    145 1
   182    180    162 1
   183    181    162 1
   184    182    163 1
   185    183    165 1
   186    184    167 1
   187    185    167 1
   188    186    168 1
   189    187    170 1
   190    188    175 1
   191     29     17 1
   192     30     17 1
   193     91     79 1
   194     92     79 1
   195    124    112 1
   196    125    112 1
   197    189    177 1
   198    190    177 1
   199     61     47 1
   200     62     47 1
   201    155    144 1
   202    156    144 1
   203    157    144 1
   204     71    191 1
   205     93    805 1
   206    199    224 1
   207    232    256 1
   208    264    289 1
   209    297    321 1
   210    329    353 1
   211    361    385 1
   212    393    417 1
   213    425    447 1
   214    455    479 1
   215    517    542 1
   216    550    574 1
   217    582    607 1
   218    615    639 1
   219    647    671 1
   220    679    703 1
   221    711    735 1
   222    743    765 1
   223    773    797 1
   224    191    192 1
   225    191    193 1
   226    191    194 1
   227    194    195 1
   228    195    196 1
   229    196    197 1
   230    196    198 1
   231    197    201 1
   232    198    199 1
   233    198    200 1
   234    200    201 1
   235    201    202 1
   236    202    203 ar
   237    202    212 ar
   238    203    204 ar
   239    204    205 ar
   240    205    206 1
   241    205    212 ar
   242    206    207 2
   243    206    208 am
   244    208    209 1
   245    209    210 2
   246    209    211 2
   247    211    212 1
   248    224    225 1
   249    224    226 1
   250    224    227 1
   251    227    228 1
   252    228    229 1
   253    229    230 1
   254    229    231 1
   255    230    234 1
   256    231    232 1
   257    231    233 1
   258    233    234 1
   259    234    235 1
   260    235    236 am
   261    235    243 1
   262    236    237 2
   263    236    238 am
   264    238    239 am
   265    239    240 2
   266    239    241 1
   267    241    242 1
   268    241    243 2
   269    256    257 1
   270    256    258 1
   271    256    259 1
   272    259    260 1
   273    260    261 1
   274    261    262 1
   275    261    263 1
   276    262    266 1
   277    263    264 1
   278    263    265 1
   279    265    266 1
   280    266    267 1
   281    267    268 ar
   282    267    277 ar
   283    268    269 ar
   284    269    270 ar
   285    270    271 1
   286    270    277 ar
   287    271    272 2
   288    271    273 am
   289    273    274 1
   290    274    275 2
   291    274    276 2
   292    276    277 1
   293    289    290 1
   294    289    291 1
   295    289    292 1
   296    292    293 1
   297    293    294 1
   298    294    295 1
   299    294    296 1
   300    295    299 1
   301    296    297 1
   302    296    298 1
   303    298    299 1
   304    299    300 1
   305    300    301 ar
   306    300    309 ar
   307    301    302 ar
   308    302    303 ar
   309    303    304 ar
   310    303    309 ar
   311    304    305 1
   312    304    306 ar
   313    306    307 ar
   314    307    308 ar
   315    308    309 ar
   316    321    322 1
   317    321    323 1
   318    321    324 1
   319    324    325 1
   320    325    326 1
   321    326    327 1
   322    326    328 1
   323    327    331 1
   324    328    329 1
   325    328    330 1
   326    330    331 1
   327    331    332 1
   328    332    333 ar
   329    332    341 ar
   330    333    334 ar
   331    334    335 ar
   332    335    336 ar
   333    335    341 ar
   334    336    337 1
   335    336    338 ar
   336    338    339 ar
   337    339    340 ar
   338    340    341 ar
   339    353    354 1
   340    353    355 1
   341    353    356 1
   342    356    357 1
   343    357    358 1
   344    358    359 1
   345    358    360 1
   346    359    363 1
   347    360    361 1
   348    360    362 1
   349    362    363 1
   350    363    364 1
   351    364    365 am
   352    364    372 1
   353    365    366 2
   354    365    367 am
   355    367    368 am
   356    368    369 2
   357    368    370 1
   358    370    371 1
   359    370    372 2
   360    385    386 1
   361    385    387 1
   362    385    388 1
   363    388    389 1
   364    389    390 1
   365    390    391 1
   366    390    392 1
   367    391    395 1
   368    392    393 1
   369    392    394 1
   370    394    395 1
   371    395    396 1
   372    396    397 am
   373    396    404 1
   374    397    398 2
   375    397    399 am
   376    399    400 am
   377    400    401 2
   378    400    402 1
   379    402    403 1
   380    402    404 2
   381    417    418 1
   382    417    419 1
   383    417    420 1
   384    420    421 1
   385    421    422 1
   386    422    423 1
   387    422    424 1
   388    423    427 1
   389    424    425 1
   390    424    426 1
   391    426    427 1
   392    427    428 1
   393    428    429 am
   394    428    435 1
   395    429    430 2
   396    429    431 1
   397    431    432 2
   398    432    433 2
   399    432    434 2
   400    434    435 2
   401    447    448 1
   402    447    449 1
   403    447    450 1
   404    450    451 1
   405    451    452 1
   406    452    453 1
   407    452    454 1
   408    453    457 1
   409    454    455 1
   410    454    456 1
   411    456    457 1
   412    457    458 1
   413    458    459 ar
   414    458    467 ar
   415    459    460 ar
   416    460    461 ar
   417    461    462 ar
   418    461    467 ar
   419    462    463 1
   420    462    464 ar
   421    464    465 ar
   422    465    466 ar
   423    466    467 ar
   424    479    480 1
   425    479    481 1
   426    479    482 1
   427    482    483 1
   428    483    484 1
   429    484    485 1
   430    484    486 1
   431    485    489 1
   432    486    487 1
   433    486    488 1
   434    488    489 1
   435    489    490 1
   436    490    491 am
   437    490    497 1
   438    491    492 2
   439    491    493 1
   440    493    494 2
   441    494    495 2
   442    494    496 2
   443    496    497 2
   444    509    510 1
   445    509    511 1
   446    509    512 1
   447    512    513 1
   448    513    514 1
   449    514    515 1
   450    514    516 1
   451    515    519 1
   452    516    517 1
   453    516    518 1
   454    518    519 1
   455    519    520 1
   456    520    521 ar
   457    520    530 ar
   458    521    522 ar
   459    522    523 ar
   460    523    524 1
   461    523    530 ar
   462    524    525 2
   463    524    526 am
   464    526    527 1
   465    527    528 2
   466    527    529 2
   467    529    530 1
   468    542    543 1
   469    542    544 1
   470    542    545 1
   471    545    546 1
   472    546    547 1
   473    547    548 1
   474    547    549 1
   475    548    552 1
   476    549    550 1
   477    549    551 1
   478    551    552 1
   479    552    553 1
   480    553    554 am
   481    553    561 1
   482    554    555 2
   483    554    556 am
   484    556    557 am
   485    557    558 2
   486    557    559 1
   487    559    560 1
   488    559    561 2
   489    574    575 1
   490    574    576 1
   491    574    577 1
   492    577    578 1
   493    578    579 1
   494    579    580 1
   495    579    581 1
   496    580    584 1
   497    581    582 1
   498    581    583 1
   499    583    584 1
   500    584    585 1
   501    585    586 ar
   502    585    595 ar
   503    586    587 ar
   504    587    588 ar
   505    588    589 1
   506    588    595 ar
   507    589    590 2
   508    589    591 am
   509    591    592 1
   510    592    593 2
   511    592    594 2
   512    594    595 1
   513    607    608 1
   514    607    609 1
   515    607    610 1
   516    610    611 1
   517    611    612 1
   518    612    613 1
   519    612    614 1
   520    613    617 1
   521    614    615 1
   522    614    616 1
   523    616    617 1
   524    617    618 1
   525    618    619 ar
   526    618    627 ar
   527    619    620 ar
   528    620    621 ar
   529    621    622 ar
   530    621    627 ar
   531    622    623 1
   532    622    624 ar
   533    624    625 ar
   534    625    626 ar
   535    626    627 ar
   536    639    640 1
   537    639    641 1
   538    639    642 1
   539    642    643 1
   540    643    644 1
   541    644    645 1
   542    644    646 1
   543    645    649 1
   544    646    647 1
   545    646    648 1
   546    648    649 1
   547    649    650 1
   548    650    651 ar
   549    650    659 ar
   550    651    652 ar
   551    652    653 ar
   552    653    654 ar
   553    653    659 ar
   554    654    655 1
   555    654    656 ar
   556    656    657 ar
   557    657    658 ar
   558    658    659 ar
   559    671    672 1
   560    671    673 1
   561    671    674 1
   562    674    675 1
   563    675    676 1
   564    676    677 1
   565    676    678 1
   566    677    681 1
   567    678    679 1
   568    678    680 1
   569    680    681 1
   570    681    682 1
   571    682    683 am
   572    682    690 1
   573    683    684 2
   574    683    685 am
   575    685    686 am
   576    686    687 2
   577    686    688 1
   578    688    689 1
   579    688    690 2
   580    703    704 1
   581    703    705 1
   582    703    706 1
   583    706    707 1
   584    707    708 1
   585    708    709 1
   586    708    710 1
   587    709    713 1
   588    710    711 1
   589    710    712 1
   590    712    713 1
   591    713    714 1
   592    714    715 am
   593    714    722 1
   594    715    716 2
   595    715    717 am
   596    717    718 am
   597    718    719 2
   598    718    720 1
   599    720    721 1
   600    720    722 2
   601    735    736 1
   602    735    737 1
   603    735    738 1
   604    738    739 1
   605    739    740 1
   606    740    741 1
   607    740    742 1
   608    741    745 1
   609    742    743 1
   610    742    744 1
   611    744    745 1
   612    745    746 1
   613    746    747 am
   614    746    753 1
   615    747    748 2
   616    747    749 1
   617    749    750 2
   618    750    751 2
   619    750    752 2
   620    752    753 2
   621    765    766 1
   622    765    767 1
   623    765    768 1
   624    768    769 1
   625    769    770 1
   626    770    771 1
   627    770    772 1
   628    771    775 1
   629    772    773 1
   630    772    774 1
   631    774    775 1
   632    775    776 1
   633    776    777 ar
   634    776    785 ar
   635    777    778 ar
   636    778    779 ar
   637    779    780 ar
   638    779    785 ar
   639    780    781 1
   640    780    782 ar
   641    782    783 ar
   642    783    784 ar
   643    784    785 ar
   644    797    798 1
   645    797    799 1
   646    797    800 1
   647    800    801 1
   648    801    802 1
   649    802    803 1
   650    802    804 1
   651    803    807 1
   652    804    805 1
   653    804    806 1
   654    806    807 1
   655    807    808 1
   656    808    809 am
   657    808    815 1
   658    809    810 2
   659    809    811 1
   660    811    812 2
   661    812    813 2
   662    812    814 2
   663    814    815 2
   664    213    195 1
   665    214    195 1
   666    215    196 1
   667    216    198 1
   668    217    200 1
   669    218    200 1
   670    219    201 1
   671    220    203 1
   672    221    208 1
   673    244    228 1
   674    245    228 1
   675    246    229 1
   676    247    231 1
   677    248    233 1
   678    249    233 1
   679    250    234 1
   680    251    238 1
   681    252    243 1
   682    278    260 1
   683    279    260 1
   684    280    261 1
   685    281    263 1
   686    282    265 1
   687    283    265 1
   688    284    266 1
   689    285    268 1
   690    286    273 1
   691    310    293 1
   692    311    293 1
   693    312    294 1
   694    313    296 1
   695    314    298 1
   696    315    298 1
   697    316    299 1
   698    317    301 1
   699    318    307 1
   700    342    325 1
   701    343    325 1
   702    344    326 1
   703    345    328 1
   704    346    330 1
   705    347    330 1
   706    348    331 1
   707    349    333 1
   708    350    339 1
   709    373    357 1
   710    374    357 1
   711    375    358 1
   712    376    360 1
   713    377    362 1
   714    378    362 1
   715    379    363 1
   716    380    367 1
   717    381    372 1
   718    405    389 1
   719    406    389 1
   720    407    390 1
   721    408    392 1
   722    409    394 1
   723    410    394 1
   724    411    395 1
   725    412    399 1
   726    413    404 1
   727    436    421 1
   728    437    421 1
   729    438    422 1
   730    439    424 1
   731    440    426 1
   732    441    426 1
   733    442    427 1
   734    443    434 1
   735    444    435 1
   736    468    451 1
   737    469    451 1
   738    470    452 1
   739    471    454 1
   740    472    456 1
   741    473    456 1
   742    474    457 1
   743    475    459 1
   744    476    465 1
   745    498    483 1
   746    499    483 1
   747    500    484 1
   748    501    486 1
   749    502    488 1
   750    503    488 1
   751    504    489 1
   752    505    496 1
   753    506    497 1
   754    531    513 1
   755    532    513 1
   756    533    514 1
   757    534    516 1
   758    535    518 1
   759    536    518 1
   760    537    519 1
   761    538    521 1
   762    539    526 1
   763    562    546 1
   764    563    546 1
   765    564    547 1
   766    565    549 1
   767    566    551 1
   768    567    551 1
   769    568    552 1
   770    569    556 1
   771    570    561 1
   772    596    578 1
   773    597    578 1
   774    598    579 1
   775    599    581 1
   776    600    583 1
   777    601    583 1
   778    602    584 1
   779    603    586 1
   780    604    591 1
   781    628    611 1
   782    629    611 1
   783    630    612 1
   784    631    614 1
   785    632    616 1
   786    633    616 1
   787    634    617 1
   788    635    619 1
   789    636    625 1
   790    660    643 1
   791    661    643 1
   792    662    644 1
   793    663    646 1
   794    664    648 1
   795    665    648 1
   796    666    649 1
   797    667    651 1
   798    668    657 1
   799    691    675 1
   800    692    675 1
   801    693    676 1
   802    694    678 1
   803    695    680 1
   804    696    680 1
   805    697    681 1
   806    698    685 1
   807    699    690 1
   808    723    707 1
   809    724    707 1
   810    725    708 1
   811    726    710 1
   812    727    712 1
   813    728    712 1
   814    729    713 1
   815    730    717 1
   816    731    722 1
   817    754    739 1
   818    755    739 1
   819    756    740 1
   820    757    742 1
   821    758    744 1
   822    759    744 1
   823    760    745 1
   824    761    752 1
   825    762    753 1
   826    786    769 1
   827    787    769 1
   828    788    770 1
   829    789    772 1
   830    790    774 1
   831    791    774 1
   832    792    775 1
   833    793    777 1
   834    794    783 1
   835    816    801 1
   836    817    801 1
   837    818    802 1
   838    819    804 1
   839    820    806 1
   840    821    806 1
   841    822    807 1
   842    823    814 1
   843    824    815 1
   844    222    210 1
   845    223    210 1
   846    287    275 1
   847    288    275 1
   848    445    433 1
   849    446    433 1
   850    507    495 1
   851    508    495 1
   852    540    528 1
   853    541    528 1
   854    605    593 1
   855    606    593 1
   856    763    751 1
   857    764    751 1
   858    825    813 1
   859    826    813 1
   860    319    305 1
   861    320    305 1
   862    351    337 1
   863    352    337 1
   864    477    463 1
   865    478    463 1
   866    637    623 1
   867    638    623 1
   868    669    655 1
   869    670    655 1
   870    795    781 1
   871    796    781 1
   872    253    242 1
   873    254    242 1
   874    255    242 1
   875    382    371 1
   876    383    371 1
   877    384    371 1
   878    414    403 1
   879    415    403 1
   880    416    403 1
   881    571    560 1
   882    572    560 1
   883    573    560 1
   884    700    689 1
   885    701    689 1
   886    702    689 1
   887    732    721 1
   888    733    721 1
   889    734    721 1
   890    487    827 1
   891    509   1441 1
   892    835    860 1
   893    868    892 1
   894    900    925 1
   895    933    957 1
   896    965    989 1
   897    997   1021 1
   898   1029   1053 1
   899   1061   1083 1
   900   1091   1115 1
   901   1153   1178 1
   902   1186   1210 1
   903   1218   1243 1
   904   1251   1275 1
   905   1283   1307 1
   906   1315   1339 1
   907   1347   1371 1
   908   1379   1401 1
   909   1409   1433 1
   910    827    828 1
   911    827    829 1
   912    827    830 1
   913    830    831 1
   914    831    832 1
   915    832    833 1
   916    832    834 1
   917    833    837 1
   918    834    835 1
   919    834    836 1
   920    836    837 1
   921    837    838 1
   922    838    839 ar
   923    838    848 ar
   924    839    840 ar
   925    840    841 ar
   926    841    842 1
   927    841    848 ar
   928    842    843 2
   929    842    844 am
   930    844    845 1
   931    845    846 2
   932    845    847 2
   933    847    848 1
   934    860    861 1
   935    860    862 1
   936    860    863 1
   937    863    864 1
   938    864    865 1
   939    865    866 1
   940    865    867 1
   941    866    870 1
   942    867    868 1
   943    867    869 1
   944    869    870 1
   945    870    871 1
   946    871    872 am
   947    871    879 1
   948    872    873 2
   949    872    874 am
   950    874    875 am
   951    875    876 2
   952    875    877 1
   953    877    878 1
   954    877    879 2
   955    892    893 1
   956    892    894 1
   957    892    895 1
   958    895    896 1
   959    896    897 1
   960    897    898 1
   961    897    899 1
   962    898    902 1
   963    899    900 1
   964    899    901 1
   965    901    902 1
   966    902    903 1
   967    903    904 ar
   968    903    913 ar
   969    904    905 ar
   970    905    906 ar
   971    906    907 1
   972    906    913 ar
   973    907    908 2
   974    907    909 am
   975    909    910 1
   976    910    911 2
   977    910    912 2
   978    912    913 1
   979    925    926 1
   980    925    927 1
   981    925    928 1
   982    928    929 1
   983    929    930 1
   984    930    931 1
   985    930    932 1
   986    931    935 1
   987    932    933 1
   988    932    934 1
   989    934    935 1
   990    935    936 1
   991    936    937 ar
   992    936    945 ar
   993    937    938 ar
   994    938    939 ar
   995    939    940 ar
   996    939    945 ar
   997    940    941 1
   998    940    942 ar
   999    942    943 ar
  1000    943    944 ar
  1001    944    945 ar
  1002    957    958 1
  1003    957    959 1
  1004    957    960 1
  1005    960    961 1
  1006    961    962 1
  1007    962    963 1
  1008    962    964 1
  1009    963    967 1
  1010    964    965 1
  1011    964    966 1
  1012    966    967 1
  1013    967    968 1
  1014    968    969 ar
  1015    968    977 ar
  1016    969    970 ar
  1017    970    971 ar
  1018    971    972 ar
  1019    971    977 ar
  1020    972    973 1
  1021    972    974 ar
  1022    974    975 ar
  1023    975    976 ar
  1024    976    977 ar
  1025    989    990 1
  1026    989    991 1
  1027    989    992 1
  1028    992    993 1
  1029    993    994 1
  1030    994    995 1
  1031    994    996 1
  1032    995    999 1
  1033    996    997 1
  1034    996    998 1
  1035    998    999 1
  1036    999   1000 1
  1037   1000   1001 am
  1038   1000   1008 1
  1039   1001   1002 2
  1040   1001   1003 am
  1041   1003   1004 am
  1042   1004   1005 2
  1043   1004   1006 1
  1044   1006   1007 1
  1045   1006   1008 2
  1046   1021   1022 1
  1047   1021   1023 1
  1048   1021   1024 1
  1049   1024   1025 1
  1050   1025   1026 1
  1051   1026   1027 1
  1052   1026   1028 1
  1053   1027   1031 1
  1054   1028   1029 1
  1055   1028   1030 1
  1056   1030   1031 1
  1057   1031   1032 1
  1058   1032   1033 am
  1059   1032   1040 1
  1060   1033   1034 2
  1061   1033   1035 am
  1062   1035   1036 am
  1063   1036   1037 2
  1064   1036   1038 1
  1065   1038   1039 1
  1066   1038   1040 2
  1067   1053   1054 1
  1068   1053   1055 1
  1069   1053   1056 1
  1070   1056   1057 1
  1071   1057   1058 1
  1072   1058   1059 1
  1073   1058   1060 1
  1074   1059   1063 1
  1075   1060   1061 1
  1076   1060   1062 1
  1077   1062   1063 1
  1078   1063   1064 1
  1079   1064   1065 am
  1080   1064   1071 1
  1081   1065   1066 2
  1082   1065   1067 1
  1083   1067   1068 2
  1084   1068   1069 2
  1085   1068   1070 2
  1086   1070   1071 2
  1087   1083   1084 1
  1088   1083   1085 1
  1089   1083   1086 1
  1090   1086   1087 1
  1091   1087   1088 1
  1092   1088   1089 1
  1093   1088   1090 1
  1094   1089   1093 1
  1095   1090   1091 1
  1096   1090   1092 1
  1097   1092   1093 1
  1098   1093   1094 1
  1099   1094   1095 ar
  1100   1094   1103 ar
  1101   1095   1096 ar
  1102   1096   1097 ar
  1103   1097   1098 ar
  1104   1097   1103 ar
  1105   1098   1099 1
  1106   1098   1100 ar
  1107   1100   1101 ar
  1108   1101   1102 ar
  1109   1102   1103 ar
  1110   1115   1116 1
  1111   1115   1117 1
  1112   1115   1118 1
  1113   1118   1119 1
  1114   1119   1120 1
  1115   1120   1121 1
  1116   1120   1122 1
  1117   1121   1125 1
  1118   1122   1123 1
  1119   1122   1124 1
  1120   1124   1125 1
  1121   1125   1126 1
  1122   1126   1127 am
  1123   1126   1133 1
  1124   1127   1128 2
  1125   1127   1129 1
  1126   1129   1130 2
  1127   1130   1131 2
  1128   1130   1132 2
  1129   1132   1133 2
  1130   1145   1146 1
  1131   1145   1147 1
  1132   1145   1148 1
  1133   1148   1149 1
  1134   1149   1150 1
  1135   1150   1151 1
  1136   1150   1152 1
  1137   1151   1155 1
  1138   1152   1153 1
  1139   1152   1154 1
  1140   1154   1155 1
  1141   1155   1156 1
  1142   1156   1157 ar
  1143   1156   1166 ar
  1144   1157   1158 ar
  1145   1158   1159 ar
  1146   1159   1160 1
  1147   1159   1166 ar
  1148   1160   1161 2
  1149   1160   1162 am
  1150   1162   1163 1
  1151   1163   1164 2
  1152   1163   1165 2
  1153   1165   1166 1
  1154   1178   1179 1
  1155   1178   1180 1
  1156   1178   1181 1
  1157   1181   1182 1
  1158   1182   1183 1
  1159   1183   1184 1
  1160   1183   1185 1
  1161   1184   1188 1
  1162   1185   1186 1
  1163   1185   1187 1
  1164   1187   1188 1
  1165   1188   1189 1
  1166   1189   1190 am
  1167   1189   1197 1
  1168   1190   1191 2
  1169   1190   1192 am
  1170   1192   1193 am
  1171   1193   1194 2
  1172   1193   1195 1
  1173   1195   1196 1
  1174   1195   1197 2
  1175   1210   1211 1
  1176   1210   1212 1
  1177   1210   1213 1
  1178   1213   1214 1
  1179   1214   1215 1
  1180   1215   1216 1
  1181   1215   1217 1
  1182   1216   1220 1
  1183   1217   1218 1
  1184   1217   1219 1
  1185   1219   1220 1
  1186   1220   1221 1
  1187   1221   1222 ar
  1188   1221   1231 ar
  1189   1222   1223 ar
  1190   1223   1224 ar
  1191   1224   1225 1
  1192   1224   1231 ar
  1193   1225   1226 2
  1194   1225   1227 am
  1195   1227   1228 1
  1196   1228   1229 2
  1197   1228   1230 2
  1198   1230   1231 1
  1199   1243   1244 1
  1200   1243   1245 1
  1201   1243   1246 1
  1202   1246   1247 1
  1203   1247   1248 1
  1204   1248   1249 1
  1205   1248   1250 1
  1206   1249   1253 1
  1207   1250   1251 1
  1208   1250   1252 1
  1209   1252   1253 1
  1210   1253   1254 1
  1211   1254   1255 ar
  1212   1254   1263 ar
  1213   1255   1256 ar
  1214   1256   1257 ar
  1215   1257   1258 ar
  1216   1257   1263 ar
  1217   1258   1259 1
  1218   1258   1260 ar
  1219   1260   1261 ar
  1220   1261   1262 ar
  1221   1262   1263 ar
  1222   1275   1276 1
  1223   1275   1277 1
  1224   1275   1278 1
  1225   1278   1279 1
  1226   1279   1280 1
  1227   1280   1281 1
  1228   1280   1282 1
  1229   1281   1285 1
  1230   1282   1283 1
  1231   1282   1284 1
  1232   1284   1285 1
  1233   1285   1286 1
  1234   1286   1287 ar
  1235   1286   1295 ar
  1236   1287   1288 ar
  1237   1288   1289 ar
  1238   1289   1290 ar
  1239   1289   1295 ar
  1240   1290   1291 1
  1241   1290   1292 ar
  1242   1292   1293 ar
  1243   1293   1294 ar
  1244   1294   1295 ar
  1245   1307   1308 1
  1246   1307   1309 1
  1247   1307   1310 1
  1248   1310   1311 1
  1249   1311   1312 1
  1250   1312   1313 1
  1251   1312   1314 1
  1252   1313   1317 1
  1253   1314   1315 1
  1254   1314   1316 1
  1255   1316   1317 1
  1256   1317   1318 1
  1257   1318   1319 am
  1258   1318   1326 1
  1259   1319   1320 2
  1260   1319   1321 am
  1261   1321   1322 am
  1262   1322   1323 2
  1263   1322   1324 1
  1264   1324   1325 1
  1265   1324   1326 2
  1266   1339   1340 1
  1267   1339   1341 1
  1268   1339   1342 1
  1269   1342   1343 1
  1270   1343   1344 1
  1271   1344   1345 1
  1272   1344   1346 1
  1273   1345   1349 1
  1274   1346   1347 1
  1275   1346   1348 1
  1276   1348   1349 1
  1277   1349   1350 1
  1278   1350   1351 am
  1279   1350   1358 1
  1280   1351   1352 2
  1281   1351   1353 am
  1282   1353   1354 am
  1283   1354   1355 2
  1284   1354   1356 1
  1285   1356   1357 1
  1286   1356   1358 2
  1287   1371   1372 1
  1288   1371   1373 1
  1289   1371   1374 1
  1290   1374   1375 1
  1291   1375   1376 1
  1292   1376   1377 1
  1293   1376   1378 1
  1294   1377   1381 1
  1295   1378   1379 1
  1296   1378   1380 1
  1297   1380   1381 1
  1298   1381   1382 1
  1299   1382   1383 am
  1300   1382   1389 1
  1301   1383   1384 2
  1302   1383   1385 1
  1303   1385   1386 2
  1304   1386   1387 2
  1305   1386   1388 2
  1306   1388   1389 2
  1307   1401   1402 1
  1308   1401   1403 1
  1309   1401   1404 1
  1310   1404   1405 1
  1311   1405   1406 1
  1312   1406   1407 1
  1313   1406   1408 1
  1314   1407   1411 1
  1315   1408   1409 1
  1316   1408   1410 1
  1317   1410   1411 1
  1318   1411   1412 1
  1319   1412   1413 ar
  1320   1412   1421 ar
  1321   1413   1414 ar
  1322   1414   1415 ar
  1323   1415   1416 ar
  1324   1415   1421 ar
  1325   1416   1417 1
  1326   1416   1418 ar
  1327   1418   1419 ar
  1328   1419   1420 ar
  1329   1420   1421 ar
  1330   1433   1434 1
  1331   1433   1435 1
  1332   1433   1436 1
  1333   1436   1437 1
  1334   1437   1438 1
  1335   1438   1439 1
  1336   1438   1440 1
  1337   1439   1443 1
  1338   1440   1441 1
  1339   1440   1442 1
  1340   1442   1443 1
  1341   1443   1444 1
  1342   1444   1445 am
  1343   1444   1451 1
  1344   1445   1446 2
  1345   1445   1447 1
  1346   1447   1448 2
  1347   1448   1449 2
  1348   1448   1450 2
  1349   1450   1451 2
  1350    849    831 1
  1351    850    831 1
  1352    851    832 1
  1353    852    834 1
  1354    853    836 1
  1355    854    836 1
  1356    855    837 1
  1357    856    839 1
  1358    857    844 1
  1359    880    864 1
  1360    881    864 1
  1361    882    865 1
  1362    883    867 1
  1363    884    869 1
  1364    885    869 1
  1365    886    870 1
  1366    887    874 1
  1367    888    879 1
  1368    914    896 1
  1369    915    896 1
  1370    916    897 1
  1371    917    899 1
  1372    918    901 1
  1373    919    901 1
  1374    920    902 1
  1375    921    904 1
  1376    922    909 1
  1377    946    929 1
  1378    947    929 1
  1379    948    930 1
  1380    949    932 1
  1381    950    934 1
  1382    951    934 1
  1383    952    935 1
  1384    953    937 1
  1385    954    943 1
  1386    978    961 1
  1387    979    961 1
  1388    980    962 1
  1389    981    964 1
  1390    982    966 1
  1391    983    966 1
  1392    984    967 1
  1393    985    969 1
  1394    986    975 1
  1395   1009    993 1
  1396   1010    993 1
  1397   1011    994 1
  1398   1012    996 1
  1399   1013    998 1
  1400   1014    998 1
  1401   1015    999 1
  1402   1016   1003 1
  1403   1017   1008 1
  1404   1041   1025 1
  1405   1042   1025 1
  1406   1043   1026 1
  1407   1044   1028 1
  1408   1045   1030 1
  1409   1046   1030 1
  1410   1047   1031 1
  1411   1048   1035 1
  1412   1049   1040 1
  1413   1072   1057 1
  1414   1073   1057 1
  1415   1074   1058 1
  1416   1075   1060 1
  1417   1076   1062 1
  1418   1077   1062 1
  1419   1078   1063 1
  1420   1079   1070 1
  1421   1080   1071 1
  1422   1104   1087 1
  1423   1105   1087 1
  1424   1106   1088 1
  1425   1107   1090 1
  1426   1108   1092 1
  1427   1109   1092 1
  1428   1110   1093 1
  1429   1111   1095 1
  1430   1112   1101 1
  1431   1134   1119 1
  1432   1135   1119 1
  1433   1136   1120 1
  1434   1137   1122 1
  1435   1138   1124 1
  1436   1139   1124 1
  1437   1140   1125 1
  1438   1141   1132 1
  1439   1142   1133 1
  1440   1167   1149 1
  1441   1168   1149 1
  1442   1169   1150 1
  1443   1170   1152 1
  1444   1171   1154 1
  1445   1172   1154 1
  1446   1173   1155 1
  1447   1174   1157 1
  1448   1175   1162 1
  1449   1198   1182 1
  1450   1199   1182 1
  1451   1200   1183 1
  1452   1201   1185 1
  1453   1202   1187 1
  1454   1203   1187 1
  1455   1204   1188 1
  1456   1205   1192 1
  1457   1206   1197 1
  1458   1232   1214 1
  1459   1233   1214 1
  1460   1234   1215 1
  1461   1235   1217 1
  1462   1236   1219 1
  1463   1237   1219 1
  1464   1238   1220 1
  1465   1239   1222 1
  1466   1240   1227 1
  1467   1264   1247 1
  1468   1265   1247 1
  1469   1266   1248 1
  1470   1267   1250 1
  1471   1268   1252 1
  1472   1269   1252 1
  1473   1270   1253 1
  1474   1271   1255 1
  1475   1272   1261 1
  1476   1296   1279 1
  1477   1297   1279 1
  1478   1298   1280 1
  1479   1299   1282 1
  1480   1300   1284 1
  1481   1301   1284 1
  1482   1302   1285 1
  1483   1303   1287 1
  1484   1304   1293 1
  1485   1327   1311 1
  1486   1328   1311 1
  1487   1329   1312 1
  1488   1330   1314 1
  1489   1331   1316 1
  1490   1332   1316 1
  1491   1333   1317 1
  1492   1334   1321 1
  1493   1335   1326 1
  1494   1359   1343 1
  1495   1360   1343 1
  1496   1361   1344 1
  1497   1362   1346 1
  1498   1363   1348 1
  1499   1364   1348 1
  1500   1365   1349 1
  1501   1366   1353 1
  1502   1367   1358 1
  1503   1390   1375 1
  1504   1391   1375 1
  1505   1392   1376 1
  1506   1393   1378 1
  1507   1394   1380 1
  1508   1395   1380 1
  1509   1396   1381 1
  1510   1397   1388 1
  1511   1398   1389 1
  1512   1422   1405 1
  1513   1423   1405 1
  1514   1424   1406 1
  1515   1425   1408 1
  1516   1426   1410 1
  1517   1427   1410 1
  1518   1428   1411 1
  1519   1429   1413 1
  1520   1430   1419 1
  1521   1452   1437 1
  1522   1453   1437 1
  1523   1454   1438 1
  1524   1455   1440 1
  1525   1456   1442 1
  1526   1457   1442 1
  1527   1458   1443 1
  1528   1459   1450 1
  1529   1460   1451 1
  1530    858    846 1
  1531    859    846 1
  1532    923    911 1
  1533    924    911 1
  1534   1081   1069 1
  1535   1082   1069 1
  1536   1143   1131 1
  1537   1144   1131 1
  1538   1176   1164 1
  1539   1177   1164 1
  1540   1241   1229 1
  1541   1242   1229 1
  1542   1399   1387 1
  1543   1400   1387 1
  1544   1461   1449 1
  1545   1462   1449 1
  1546    955    941 1
  1547    956    941 1
  1548    987    973 1
  1549    988    973 1
  1550   1113   1099 1
  1551   1114   1099 1
  1552   1273   1259 1
  1553   1274   1259 1
  1554   1305   1291 1
  1555   1306   1291 1
  1556   1431   1417 1
  1557   1432   1417 1
  1558    889    878 1
  1559    890    878 1
  1560    891    878 1
  1561   1018   1007 1
  1562   1019   1007 1
  1563   1020   1007 1
  1564   1050   1039 1
  1565   1051   1039 1
  1566   1052   1039 1
  1567   1207   1196 1
  1568   1208   1196 1
  1569   1209   1196 1
  1570   1336   1325 1
  1571   1337   1325 1
  1572   1338   1325 1
  1573   1368   1357 1
  1574   1369   1357 1
  1575   1370   1357 1
  1576   1123   1463 1
  1577   1145   2077 1
  1578   1471   1496 1
  1579   1504   1528 1
  1580   1536   1561 1
  1581   1569   1593 1
  1582   1601   1625 1
  1583   1633   1657 1
  1584   1665   1689 1
  1585   1697   1719 1
  1586   1727   1751 1
  1587   1789   1814 1
  1588   1822   1846 1
  1589   1854   1879 1
  1590   1887   1911 1
  1591   1919   1943 1
  1592   1951   1975 1
  1593   1983   2007 1
  1594   2015   2037 1
  1595   2045   2069 1
  1596   1463   1464 1
  1597   1463   1465 1
  1598   1463   1466 1
  1599   1466   1467 1
  1600   1467   1468 1
  1601   1468   1469 1
  1602   1468   1470 1
  1603   1469   1473 1
  1604   1470   1471 1
  1605   1470   1472 1
  1606   1472   1473 1
  1607   1473   1474 1
  1608   1474   1475 ar
  1609   1474   1484 ar
  1610   1475   1476 ar
  1611   1476   1477 ar
  1612   1477   1478 1
  1613   1477   1484 ar
  1614   1478   1479 2
  1615   1478   1480 am
  1616   1480   1481 1
  1617   1481   1482 2
  1618   1481   1483 2
  1619   1483   1484 1
  1620   1496   1497 1
  1621   1496   1498 1
  1622   1496   1499 1
  1623   1499   1500 1
  1624   1500   1501 1
  1625   1501   1502 1
  1626   1501   1503 1
  1627   1502   1506 1
  1628   1503   1504 1
  1629   1503   1505 1
  1630   1505   1506 1
  1631   1506   1507 1
  1632   1507   1508 am
  1633   1507   1515 1
  1634   1508   1509 2
  1635   1508   1510 am
  1636   1510   1511 am
  1637   1511   1512 2
  1638   1511   1513 1
  1639   1513   1514 1
  1640   1513   1515 2
  1641   1528   1529 1
  1642   1528   1530 1
  1643   1528   1531 1
  1644   1531   1532 1
  1645   1532   1533 1
  1646   1533   1534 1
  1647   1533   1535 1
  1648   1534   1538 1
  1649   1535   1536 1
  1650   1535   1537 1
  1651   1537   1538 1
  1652   1538   1539 1
  1653   1539   1540 ar
  1654   1539   1549 ar
  1655   1540   1541 ar
  1656   1541   1542 ar
  1657   1542   1543 1
  1658   1542   1549 ar
  1659   1543   1544 2
  1660   1543   1545 am
  1661   1545   1546 1
  1662   1546   1547 2
  1663   1546   1548 2
  1664   1548   1549 1
  1665   1561   1562 1
  1666   1561   1563 1
  1667   1561   1564 1
  1668   1564   1565 1
  1669   1565   1566 1
  1670   1566   1567 1
  1671   1566   1568 1
  1672   1567   1571 1
  1673   1568   1569 1
  1674   1568   1570 1
  1675   1570   1571 1
  1676   1571   1572 1
  1677   1572   1573 ar
  1678   1572   1581 ar
  1679   1573   1574 ar
  1680   1574   1575 ar
  1681   1575   1576 ar
  1682   1575   1581 ar
  1683   1576   1577 1
  1684   1576   1578 ar
  1685   1578   1579 ar
  1686   1579   1580 ar
  1687   1580   1581 ar
  1688   1593   1594 1
  1689   1593   1595 1
  1690   1593   1596 1
  1691   1596   1597 1
  1692   1597   1598 1
  1693   1598   1599 1
  1694   1598   1600 1
  1695   1599   1603 1
  1696   1600   1601 1
  1697   1600   1602 1
  1698   1602   1603 1
  1699   1603   1604 1
  1700   1604   1605 ar
  1701   1604   1613 ar
  1702   1605   1606 ar
  1703   1606   1607 ar
  1704   1607   1608 ar
  1705   1607   1613 ar
  1706   1608   1609 1
  1707   1608   1610 ar
  1708   1610   1611 ar
  1709   1611   1612 ar
  1710   1612   1613 ar
  1711   1625   1626 1
  1712   1625   1627 1
  1713   1625   1628 1
  1714   1628   1629 1
  1715   1629   1630 1
  1716   1630   1631 1
  1717   1630   1632 1
  1718   1631   1635 1
  1719   1632   1633 1
  1720   1632   1634 1
  1721   1634   1635 1
  1722   1635   1636 1
  1723   1636   1637 am
  1724   1636   1644 1
  1725   1637   1638 2
  1726   1637   1639 am
  1727   1639   1640 am
  1728   1640   1641 2
  1729   1640   1642 1
  1730   1642   1643 1
  1731   1642   1644 2
  1732   1657   1658 1
  1733   1657   1659 1
  1734   1657   1660 1
  1735   1660   1661 1
  1736   1661   1662 1
  1737   1662   1663 1
  1738   1662   1664 1
  1739   1663   1667 1
  1740   1664   1665 1
  1741   1664   1666 1
  1742   1666   1667 1
  1743   1667   1668 1
  1744   1668   1669 am
  1745   1668   1676 1
  1746   1669   1670 2
  1747   1669   1671 am
  1748   1671   1672 am
  1749   1672   1673 2
  1750   1672   1674 1
  1751   1674   1675 1
  1752   1674   1676 2
  1753   1689   1690 1
  1754   1689   1691 1
  1755   1689   1692 1
  1756   1692   1693 1
  1757   1693   1694 1
  1758   1694   1695 1
  1759   1694   1696 1
  1760   1695   1699 1
  1761   1696   1697 1
  1762   1696   1698 1
  1763   1698   1699 1
  1764   1699   1700 1
  1765   1700   1701 am
  1766   1700   1707 1
  1767   1701   1702 2
  1768   1701   1703 1
  1769   1703   1704 2
  1770   1704   1705 2
  1771   1704   1706 2
  1772   1706   1707 2
  1773   1719   1720 1
  1774   1719   1721 1
  1775   1719   1722 1
  1776   1722   1723 1
  1777   1723   1724 1
  1778   1724   1725 1
  1779   1724   1726 1
  1780   1725   1729 1
  1781   1726   1727 1
  1782   1726   1728 1
  1783   1728   1729 1
  1784   1729   1730 1
  1785   1730   1731 ar
  1786   1730   1739 ar
  1787   1731   1732 ar
  1788   1732   1733 ar
  1789   1733   1734 ar
  1790   1733   1739 ar
  1791   1734   1735 1
  1792   1734   1736 ar
  1793   1736   1737 ar
  1794   1737   1738 ar
  1795   1738   1739 ar
  1796   1751   1752 1
  1797   1751   1753 1
  1798   1751   1754 1
  1799   1754   1755 1
  1800   1755   1756 1
  1801   1756   1757 1
  1802   1756   1758 1
  1803   1757   1761 1
  1804   1758   1759 1
  1805   1758   1760 1
  1806   1760   1761 1
  1807   1761   1762 1
  1808   1762   1763 am
  1809   1762   1769 1
  1810   1763   1764 2
  1811   1763   1765 1
  1812   1765   1766 2
  1813   1766   1767 2
  1814   1766   1768 2
  1815   1768   1769 2
  1816   1781   1782 1
  1817   1781   1783 1
  1818   1781   1784 1
  1819   1784   1785 1
  1820   1785   1786 1
  1821   1786   1787 1
  1822   1786   1788 1
  1823   1787   1791 1
  1824   1788   1789 1
  1825   1788   1790 1
  1826   1790   1791 1
  1827   1791   1792 1
  1828   1792   1793 ar
  1829   1792   1802 ar
  1830   1793   1794 ar
  1831   1794   1795 ar
  1832   1795   1796 1
  1833   1795   1802 ar
  1834   1796   1797 2
  1835   1796   1798 am
  1836   1798   1799 1
  1837   1799   1800 2
  1838   1799   1801 2
  1839   1801   1802 1
  1840   1814   1815 1
  1841   1814   1816 1
  1842   1814   1817 1
  1843   1817   1818 1
  1844   1818   1819 1
  1845   1819   1820 1
  1846   1819   1821 1
  1847   1820   1824 1
  1848   1821   1822 1
  1849   1821   1823 1
  1850   1823   1824 1
  1851   1824   1825 1
  1852   1825   1826 am
  1853   1825   1833 1
  1854   1826   1827 2
  1855   1826   1828 am
  1856   1828   1829 am
  1857   1829   1830 2
  1858   1829   1831 1
  1859   1831   1832 1
  1860   1831   1833 2
  1861   1846   1847 1
  1862   1846   1848 1
  1863   1846   1849 1
  1864   1849   1850 1
  1865   1850   1851 1
  1866   1851   1852 1
  1867   1851   1853 1
  1868   1852   1856 1
  1869   1853   1854 1
  1870   1853   1855 1
  1871   1855   1856 1
  1872   1856   1857 1
  1873   1857   1858 ar
  1874   1857   1867 ar
  1875   1858   1859 ar
  1876   1859   1860 ar
  1877   1860   1861 1
  1878   1860   1867 ar
  1879   1861   1862 2
  1880   1861   1863 am
  1881   1863   1864 1
  1882   1864   1865 2
  1883   1864   1866 2
  1884   1866   1867 1
  1885   1879   1880 1
  1886   1879   1881 1
  1887   1879   1882 1
  1888   1882   1883 1
  1889   1883   1884 1
  1890   1884   1885 1
  1891   1884   1886 1
  1892   1885   1889 1
  1893   1886   1887 1
  1894   1886   1888 1
  1895   1888   1889 1
  1896   1889   1890 1
  1897   1890   1891 ar
  1898   1890   1899 ar
  1899   1891   1892 ar
  1900   1892   1893 ar
  1901   1893   1894 ar
  1902   1893   1899 ar
  1903   1894   1895 1
  1904   1894   1896 ar
  1905   1896   1897 ar
  1906   1897   1898 ar
  1907   1898   1899 ar
  1908   1911   1912 1
  1909   1911   1913 1
  1910   1911   1914 1
  1911   1914   1915 1
  1912   1915   1916 1
  1913   1916   1917 1
  1914   1916   1918 1
  1915   1917   1921 1
  1916   1918   1919 1
  1917   1918   1920 1
  1918   1920   1921 1
  1919   1921   1922 1
  1920   1922   1923 ar
  1921   1922   1931 ar
  1922   1923   1924 ar
  1923   1924   1925 ar
  1924   1925   1926 ar
  1925   1925   1931 ar
  1926   1926   1927 1
  1927   1926   1928 ar
  1928   1928   1929 ar
  1929   1929   1930 ar
  1930   1930   1931 ar
  1931   1943   1944 1
  1932   1943   1945 1
  1933   1943   1946 1
  1934   1946   1947 1
  1935   1947   1948 1
  1936   1948   1949 1
  1937   1948   1950 1
  1938   1949   1953 1
  1939   1950   1951 1
  1940   1950   1952 1
  1941   1952   1953 1
  1942   1953   1954 1
  1943   1954   1955 am
  1944   1954   1962 1
  1945   1955   1956 2
  1946   1955   1957 am
  1947   1957   1958 am
  1948   1958   1959 2
  1949   1958   1960 1
  1950   1960   1961 1
  1951   1960   1962 2
  1952   1975   1976 1
  1953   1975   1977 1
  1954   1975   1978 1
  1955   1978   1979 1
  1956   1979   1980 1
  1957   1980   1981 1
  1958   1980   1982 1
  1959   1981   1985 1
  1960   1982   1983 1
  1961   1982   1984 1
  1962   1984   1985 1
  1963   1985   1986 1
  1964   1986   1987 am
  1965   1986   1994 1
  1966   1987   1988 2
  1967   1987   1989 am
  1968   1989   1990 am
  1969   1990   1991 2
  1970   1990   1992 1
  1971   1992   1993 1
  1972   1992   1994 2
  1973   2007   2008 1
  1974   2007   2009 1
  1975   2007   2010 1
  1976   2010   2011 1
  1977   2011   2012 1
  1978   2012   2013 1
  1979   2012   2014 1
  1980   2013   2017 1
  1981   2014   2015 1
  1982   2014   2016 1
  1983   2016   2017 1
  1984   2017   2018 1
  1985   2018   2019 am
  1986   2018   2025 1
  1987   2019   2020 2
  1988   2019   2021 1
  1989   2021   2022 2
  1990   2022   2023 2
  1991   2022   2024 2
  1992   2024   2025 2
  1993   2037   2038 1
  1994   2037   2039 1
  1995   2037   2040 1
  1996   2040   2041 1
  1997   2041   2042 1
  1998   2042   2043 1
  1999   2042   2044 1
  2000   2043   2047 1
  2001   2044   2045 1
  2002   2044   2046 1
  2003   2046   2047 1
  2004   2047   2048 1
  2005   2048   2049 ar
  2006   2048   2057 ar
  2007   2049   2050 ar
  2008   2050   2051 ar
  2009   2051   2052 ar
  2010   2051   2057 ar
  2011   2052   2053 1
  2012   2052   2054 ar
  2013   2054   2055 ar
  2014   2055   2056 ar
  2015   2056   2057 ar
  2016   2069   2070 1
  2017   2069   2071 1
  2018   2069   2072 1
  2019   2072   2073 1
  2020   2073   2074 1
  2021   2074   2075 1
  2022   2074   2076 1
  2023   2075   2079 1
  2024   2076   2077 1
  2025   2076   2078 1
  2026   2078   2079 1
  2027   2079   2080 1
  2028   2080   2081 am
  2029   2080   2087 1
  2030   2081   2082 2
  2031   2081   2083 1
  2032   2083   2084 2
  2033   2084   2085 2
  2034   2084   2086 2
  2035   2086   2087 2
  2036   1485   1467 1
  2037   1486   1467 1
  2038   1487   1468 1
  2039   1488   1470 1
  2040   1489   1472 1
  2041   1490   1472 1
  2042   1491   1473 1
  2043   1492   1475 1
  2044   1493   1480 1
  2045   1516   1500 1
  2046   1517   1500 1
  2047   1518   1501 1
  2048   1519   1503 1
  2049   1520   1505 1
  2050   1521   1505 1
  2051   1522   1506 1
  2052   1523   1510 1
  2053   1524   1515 1
  2054   1550   1532 1
  2055   1551   1532 1
  2056   1552   1533 1
  2057   1553   1535 1
  2058   1554   1537 1
  2059   1555   1537 1
  2060   1556   1538 1
  2061   1557   1540 1
  2062   1558   1545 1
  2063   1582   1565 1
  2064   1583   1565 1
  2065   1584   1566 1
  2066   1585   1568 1
  2067   1586   1570 1
  2068   1587   1570 1
  2069   1588   1571 1
  2070   1589   1573 1
  2071   1590   1579 1
  2072   1614   1597 1
  2073   1615   1597 1
  2074   1616   1598 1
  2075   1617   1600 1
  2076   1618   1602 1
  2077   1619   1602 1
  2078   1620   1603 1
  2079   1621   1605 1
  2080   1622   1611 1
  2081   1645   1629 1
  2082   1646   1629 1
  2083   1647   1630 1
  2084   1648   1632 1
  2085   1649   1634 1
  2086   1650   1634 1
  2087   1651   1635 1
  2088   1652   1639 1
  2089   1653   1644 1
  2090   1677   1661 1
  2091   1678   1661 1
  2092   1679   1662 1
  2093   1680   1664 1
  2094   1681   1666 1
  2095   1682   1666 1
  2096   1683   1667 1
  2097   1684   1671 1
  2098   1685   1676 1
  2099   1708   1693 1
  2100   1709   1693 1
  2101   1710   1694 1
  2102   1711   1696 1
  2103   1712   1698 1
  2104   1713   1698 1
  2105   1714   1699 1
  2106   1715   1706 1
  2107   1716   1707 1
  2108   1740   1723 1
  2109   1741   1723 1
  2110   1742   1724 1
  2111   1743   1726 1
  2112   1744   1728 1
  2113   1745   1728 1
  2114   1746   1729 1
  2115   1747   1731 1
  2116   1748   1737 1
  2117   1770   1755 1
  2118   1771   1755 1
  2119   1772   1756 1
  2120   1773   1758 1
  2121   1774   1760 1
  2122   1775   1760 1
  2123   1776   1761 1
  2124   1777   1768 1
  2125   1778   1769 1
  2126   1803   1785 1
  2127   1804   1785 1
  2128   1805   1786 1
  2129   1806   1788 1
  2130   1807   1790 1
  2131   1808   1790 1
  2132   1809   1791 1
  2133   1810   1793 1
  2134   1811   1798 1
  2135   1834   1818 1
  2136   1835   1818 1
  2137   1836   1819 1
  2138   1837   1821 1
  2139   1838   1823 1
  2140   1839   1823 1
  2141   1840   1824 1
  2142   1841   1828 1
  2143   1842   1833 1
  2144   1868   1850 1
  2145   1869   1850 1
  2146   1870   1851 1
  2147   1871   1853 1
  2148   1872   1855 1
  2149   1873   1855 1
  2150   1874   1856 1
  2151   1875   1858 1
  2152   1876   1863 1
  2153   1900   1883 1
  2154   1901   1883 1
  2155   1902   1884 1
  2156   1903   1886 1
  2157   1904   1888 1
  2158   1905   1888 1
  2159   1906   1889 1
  2160   1907   1891 1
  2161   1908   1897 1
  2162   1932   1915 1
  2163   1933   1915 1
  2164   1934   1916 1
  2165   1935   1918 1
  2166   1936   1920 1
  2167   1937   1920 1
  2168   1938   1921 1
  2169   1939   1923 1
  2170   1940   1929 1
  2171   1963   1947 1
  2172   1964   1947 1
  2173   1965   1948 1
  2174   1966   1950 1
  2175   1967   1952 1
  2176   1968   1952 1
  2177   1969   1953 1
  2178   1970   1957 1
  2179   1971   1962 1
  2180   1995   1979 1
  2181   1996   1979 1
  2182   1997   1980 1
  2183   1998   1982 1
  2184   1999   1984 1
  2185   2000   1984 1
  2186   2001   1985 1
  2187   2002   1989 1
  2188   2003   1994 1
  2189   2026   2011 1
  2190   2027   2011 1
  2191   2028   2012 1
  2192   2029   2014 1
  2193   2030   2016 1
  2194   2031   2016 1
  2195   2032   2017 1
  2196   2033   2024 1
  2197   2034   2025 1
  2198   2058   2041 1
  2199   2059   2041 1
  2200   2060   2042 1
  2201   2061   2044 1
  2202   2062   2046 1
  2203   2063   2046 1
  2204   2064   2047 1
  2205   2065   2049 1
  2206   2066   2055 1
  2207   2088   2073 1
  2208   2089   2073 1
  2209   2090   2074 1
  2210   2091   2076 1
  2211   2092   2078 1
  2212   2093   2078 1
  2213   2094   2079 1
  2214   2095   2086 1
  2215   2096   2087 1
  2216   1494   1482 1
  2217   1495   1482 1
  2218   1559   1547 1
  2219   1560   1547 1
  2220   1717   1705 1
  2221   1718   1705 1
  2222   1779   1767 1
  2223   1780   1767 1
  2224   1812   1800 1
  2225   1813   1800 1
  2226   1877   1865 1
  2227   1878   1865 1
  2228   2035   2023 1
  2229   2036   2023 1
  2230   2097   2085 1
  2231   2098   2085 1
  2232   1591   1577 1
  2233   1592   1577 1
  2234   1623   1609 1
  2235   1624   1609 1
  2236   1749   1735 1
  2237   1750   1735 1
  2238   1909   1895 1
  2239   1910   1895 1
  2240   1941   1927 1
  2241   1942   1927 1
  2242   2067   2053 1
  2243   2068   2053 1
  2244   1525   1514 1
  2245   1526   1514 1
  2246   1527   1514 1
  2247   1654   1643 1
  2248   1655   1643 1
  2249   1656   1643 1
  2250   1686   1675 1
  2251   1687   1675 1
  2252   1688   1675 1
  2253   1843   1832 1
  2254   1844   1832 1
  2255   1845   1832 1
  2256   1972   1961 1
  2257   1973   1961 1
  2258   1974   1961 1
  2259   2004   1993 1
  2260   2005   1993 1
  2261   2006   1993 1
@<TRIPOS>MOLECULE
dna-seg-03-bp34
2162 2330 1 0 0
BIOPOLYMER
NO_CHARGES


@<TRIPOS>ATOM
      1 P          9.6086     2.8384   300.5249 P.3      101 DG      0.0000
      2 OP1       11.0603     2.5315   300.5233 O.co2    101 DG      0.0000
      3 OP2        8.9644     1.9280   301.5806 O.co2    101 DG      0.0000
      4 O5'        9.1968     4.3649   300.7033 O.3      101 DG      0.0000
      5 C5'        8.7658     5.3123   299.7032 C.3      101 DG      0.0000
      6 C4'        7.5023     5.9820   300.2021 C.3      101 DG      0.0000
      7 O4'        6.3396     5.3009   299.7829 O.3      101 DG      0.0000
      8 C3'        7.3595     6.2038   301.6943 C.3      101 DG      0.0000
      9 O3'        7.0862     7.5965   302.0063 O.3      101 DG      0.0000
     10 C2'        6.2458     5.2644   302.1161 C.3      101 DG      0.0000
     11 C1'        5.4234     5.1036   300.8605 C.3      101 DG      0.0000
     12 N9         4.8015     3.7673   300.8314 N.ar     101 DG      0.0000
     13 C8         5.3690     2.5361   301.0603 C.ar     101 DG      0.0000
     14 N7         4.5265     1.5319   300.9706 N.ar     101 DG      0.0000
     15 C5         3.3159     2.1425   300.6536 C.ar     101 DG      0.0000
     16 C6         2.0219     1.6120   300.4277 C.2      101 DG      0.0000
     17 O6         1.6669     0.4331   300.4490 O.2      101 DG      0.0000
     18 N1         1.0542     2.5371   300.1462 N.am     101 DG      0.0000
     19 C2         1.2893     3.8088   300.0855 C.2      101 DG      0.0000
     20 N2         0.2237     4.4457   299.7887 N.pl3    101 DG      0.0000
     21 N3         2.5265     4.4265   300.2943 N.2      101 DG      0.0000
     22 C4         3.4698     3.5135   300.5668 C.ar     101 DG      0.0000
     23 H5'        9.5423     6.0606   299.5445 H        101 DG      0.0000
     24 H5''       8.5608     4.7915   298.7679 H        101 DG      0.0000
     25 H4'        7.4693     6.9674   299.7373 H        101 DG      0.0000
     26 H3'        8.2837     5.9038   302.1882 H        101 DG      0.0000
     27 H2'        6.6483     4.3057   302.4431 H        101 DG      0.0000
     28 H2''       5.6472     5.7154   302.9076 H        101 DG      0.0000
     29 H1'        4.6487     5.8697   300.8286 H        101 DG      0.0000
     30 H8         6.4156     2.4059   301.2934 H        101 DG      0.0000
     31 H1         0.1126     2.2129   299.9778 H        101 DG      0.0000
     32 H21       -0.6408     3.9440   299.6444 H        101 DG      0.0000
     33 H22        0.2452     5.4514   299.6983 H        101 DG      0.0000
     34 P          6.6123     8.0732   303.4348 P.3      102 DT      0.0000
     35 OP1        7.2182     9.3544   303.9465 O.co2    102 DT      0.0000
     36 OP2        7.1819     6.9770   304.3535 O.co2    102 DT      0.0000
     37 O5'        5.0639     8.0066   303.4634 O.3      102 DT      0.0000
     38 C5'        4.2155     9.1787   303.3194 C.3      102 DT      0.0000
     39 C4'        2.8026     8.6366   303.3769 C.3      102 DT      0.0000
     40 O4'        2.7506     7.2539   303.1017 O.3      102 DT      0.0000
     41 C3'        2.0774     8.7925   304.6896 C.3      102 DT      0.0000
     42 O3'        0.9652     9.6797   304.5014 O.3      102 DT      0.0000
     43 C2'        1.6165     7.3889   305.0818 C.3      102 DT      0.0000
     44 C1'        1.5441     6.7296   303.7291 C.3      102 DT      0.0000
     45 N1         1.6977     5.2779   303.8257 N.am     102 DT      0.0000
     46 C2         0.5813     4.5114   303.6278 C.2      102 DT      0.0000
     47 O2        -0.5208     5.0000   303.3896 O.2      102 DT      0.0000
     48 N3         0.7349     3.1535   303.7089 N.am     102 DT      0.0000
     49 C4         1.9239     2.5623   303.9648 C.2      102 DT      0.0000
     50 O4         1.9092     1.3044   304.0101 O.2      102 DT      0.0000
     51 C5         3.0818     3.3806   304.1645 C.2      102 DT      0.0000
     52 C7         4.4150     2.7667   304.4444 C.3      102 DT      0.0000
     53 C6         2.9223     4.7078   304.0830 C.2      102 DT      0.0000
     54 H5'        4.3908     9.8827   304.1328 H        102 DT      0.0000
     55 H5''       4.3964     9.6598   302.3582 H        102 DT      0.0000
     56 H4'        2.2190     9.1493   302.6124 H        102 DT      0.0000
     57 H3'        2.7525     9.1915   305.4467 H        102 DT      0.0000
     58 H2'        2.3402     6.8955   305.7307 H        102 DT      0.0000
     59 H2''       0.6332     7.4206   305.5511 H        102 DT      0.0000
     60 H1'        0.6433     7.0110   303.1838 H        102 DT      0.0000
     61 H3        -0.0758     2.5672   303.5714 H        102 DT      0.0000
     62 H6         3.7802     5.3488   304.2234 H        102 DT      0.0000
     63 H71        5.0214     2.7852   303.5388 H        102 DT      0.0000
     64 H72        4.2787     1.7353   304.7691 H        102 DT      0.0000
     65 H73        4.9174     3.3316   305.2297 H        102 DT      0.0000
     66 P          0.6995    10.6478   305.7814 P.3      103 DG      0.0000
     67 OP1        0.2688    11.9221   305.0663 O.co2    103 DG      0.0000
     68 OP2        1.9335    10.7809   306.5349 O.co2    103 DG      0.0000
     69 O5'       -0.5387     9.7762   306.3909 O.3      103 DG      0.0000
     70 C5'       -1.4701     9.4206   305.3003 C.3      103 DG      0.0000
     71 C4'       -2.3956     8.3604   305.8203 C.3      103 DG      0.0000
     72 O4'       -1.9889     7.0303   305.6397 O.3      103 DG      0.0000
     73 C3'       -2.7028     8.5305   307.3283 C.3      103 DG      0.0000
     74 O3'       -4.1416     8.5735   307.4872 O.3      103 DG      0.0000
     75 C2'       -1.9879     7.3665   307.9809 C.3      103 DG      0.0000
     76 C1'       -2.0847     6.2969   306.8994 C.3      103 DG      0.0000
     77 N9        -1.0499     5.2708   307.0689 N.ar     103 DG      0.0000
     78 C8         0.2662     5.4302   307.4051 C.ar     103 DG      0.0000
     79 N7         0.9496     4.3102   307.4909 N.ar     103 DG      0.0000
     80 C5         0.0040     3.3419   307.1608 C.ar     103 DG      0.0000
     81 C6         0.1155     1.9252   307.0665 C.2      103 DG      0.0000
     82 O6         1.1180     1.2211   307.2588 O.2      103 DG      0.0000
     83 N1        -1.0549     1.2837   306.7315 N.am     103 DG      0.0000
     84 C2        -2.2119     1.9658   306.5077 C.2      103 DG      0.0000
     85 N2        -3.2507     1.1787   306.1989 N.pl3    103 DG      0.0000
     86 N3        -2.3656     3.2861   306.5787 N.2      103 DG      0.0000
     87 C4        -1.2234     3.9147   306.9053 C.ar     103 DG      0.0000
     88 H5'       -2.0424    10.2983   304.9998 H        103 DG      0.0000
     89 H5''      -0.9103     9.0358   304.4479 H        103 DG      0.0000
     90 H4'       -3.3406     8.4772   305.2897 H        103 DG      0.0000
     91 H3'       -2.2707     9.4663   307.6831 H        103 DG      0.0000
     92 H2'       -0.9498     7.6128   308.2039 H        103 DG      0.0000
     93 H2''      -2.5111     7.0502   308.8833 H        103 DG      0.0000
     94 H1'       -3.0645     5.8231   306.9583 H        103 DG      0.0000
     95 H8         0.7088     6.3987   307.5857 H        103 DG      0.0000
     96 H1        -1.0558     0.2771   306.6491 H        103 DG      0.0000
     97 H21       -3.1282     0.1774   306.1486 H        103 DG      0.0000
     98 H22       -4.1566     1.5864   306.0162 H        103 DG      0.0000
     99 P         -4.8035     8.8526   308.8756 P.3      104 DA      0.0000
    100 OP1       -5.0483    10.2833   309.2310 O.co2    104 DA      0.0000
    101 OP2       -3.6175     8.3379   309.7714 O.co2    104 DA      0.0000
    102 O5'       -5.9573     7.7936   309.1247 O.3      104 DA      0.0000
    103 C5'       -6.6502     7.0720   308.0957 C.3      104 DA      0.0000
    104 C4'       -6.6812     5.6281   308.5700 C.3      104 DA      0.0000
    105 O4'       -5.3951     5.0533   308.4796 O.3      104 DA      0.0000
    106 C3'       -7.1721     5.3958   309.9991 C.3      104 DA      0.0000
    107 O3'       -8.1387     4.3263   310.0514 O.3      104 DA      0.0000
    108 C2'       -5.8685     5.0616   310.7345 C.3      104 DA      0.0000
    109 C1'       -5.1886     4.2306   309.6569 C.3      104 DA      0.0000
    110 N9        -3.7548     4.0253   309.8853 N.ar     104 DA      0.0000
    111 C8        -2.7606     4.9370   310.1011 C.ar     104 DA      0.0000
    112 N7        -1.5722     4.4002   310.2661 N.ar     104 DA      0.0000
    113 C5        -1.7995     3.0393   310.1259 C.ar     104 DA      0.0000
    114 C6        -0.9219     1.9342   310.1738 C.ar     104 DA      0.0000
    115 N6         0.3920     2.0226   310.3936 N.pl3    104 DA      0.0000
    116 N1        -1.5092     0.7153   309.9840 N.ar     104 DA      0.0000
    117 C2        -2.8399     0.6030   309.7663 C.ar     104 DA      0.0000
    118 N3        -3.7256     1.5969   309.7080 N.ar     104 DA      0.0000
    119 C4        -3.1301     2.7888   309.8949 C.ar     104 DA      0.0000
    120 H5'       -6.1167     7.1513   307.1485 H        104 DA      0.0000
    121 H5''      -7.6655     7.4537   307.9879 H        104 DA      0.0000
    122 H4'       -7.3389     5.0740   307.9002 H        104 DA      0.0000
    123 H3'       -7.6047     6.3123   310.4005 H        104 DA      0.0000
    124 H2'       -5.2975     5.9571   310.9800 H        104 DA      0.0000
    125 H2''      -6.0632     4.4646   311.6254 H        104 DA      0.0000
    126 H1'       -5.6948     3.2721   309.5424 H        104 DA      0.0000
    127 H8        -2.9353     6.0023   310.1332 H        104 DA      0.0000
    128 H2        -3.2243    -0.3963   309.6249 H        104 DA      0.0000
    129 H61        0.9398     2.8656   310.2962 H        104 DA      0.0000
    130 H62        0.9625     1.2070   310.2221 H        104 DA      0.0000
    131 P         -9.3182     4.2627   311.1928 P.3      105 DA      0.0000
    132 OP1      -10.6701     4.3175   310.5258 O.co2    105 DA      0.0000
    133 OP2       -8.9740     5.4344   312.0237 O.co2    105 DA      0.0000
    134 O5'       -9.2027     2.7627   311.7236 O.3      105 DA      0.0000
    135 C5'       -9.4055     1.6161   310.8993 C.3      105 DA      0.0000
    136 C4'       -8.5217     0.4970   311.4216 C.3      105 DA      0.0000
    137 O4'       -7.1768     0.8835   311.4498 O.3      105 DA      0.0000
    138 C3'       -8.8523    -0.0758   312.7889 C.3      105 DA      0.0000
    139 O3'       -9.2318    -1.4497   312.7111 O.3      105 DA      0.0000
    140 C2'       -7.5931     0.2068   313.6177 C.3      105 DA      0.0000
    141 C1'       -6.5036     0.3242   312.6239 C.3      105 DA      0.0000
    142 N9        -5.3391     1.1875   312.8919 N.ar     105 DA      0.0000
    143 C8        -5.2605     2.5542   313.0071 C.ar     105 DA      0.0000
    144 N7        -4.0417     3.0094   313.1764 N.ar     105 DA      0.0000
    145 C5        -3.2521     1.8646   313.1394 C.ar     105 DA      0.0000
    146 C6        -1.8453     1.6793   313.2598 C.ar     105 DA      0.0000
    147 N6        -0.9549     2.6445   313.4515 N.pl3    105 DA      0.0000
    148 N1        -1.4077     0.3822   313.1617 N.ar     105 DA      0.0000
    149 C2        -2.2943    -0.6379   312.9726 C.ar     105 DA      0.0000
    150 N3        -3.6141    -0.5353   312.8647 N.ar     105 DA      0.0000
    151 C4        -4.0290     0.7441   312.9566 C.ar     105 DA      0.0000
    152 H5'       -9.1358     1.8494   309.8693 H        105 DA      0.0000
    153 H5''     -10.4508     1.3107   310.9453 H        105 DA      0.0000
    154 H4'       -8.5987    -0.3241   310.7089 H        105 DA      0.0000
    155 H3'       -9.6817     0.4908   313.2121 H        105 DA      0.0000
    156 H2'       -7.7030     1.1353   314.1779 H        105 DA      0.0000
    157 H2''      -7.3955    -0.6221   314.2972 H        105 DA      0.0000
    158 H1'       -6.1469    -0.6759   312.3778 H        105 DA      0.0000
    159 H8        -6.1265     3.1979   312.9623 H        105 DA      0.0000
    160 H2        -1.8793    -1.6326   312.9034 H        105 DA      0.0000
    161 H61       -1.2181     3.5635   313.7777 H        105 DA      0.0000
    162 H62        0.0192     2.4537   313.2647 H        105 DA      0.0000
    163 P        -10.3226    -2.1846   313.6673 P.3      106 DT      0.0000
    164 OP1      -11.2262    -3.1184   312.8700 O.co2    106 DT      0.0000
    165 OP2      -11.0186    -1.2158   314.4879 O.co2    106 DT      0.0000
    166 O5'       -9.3776    -3.2570   314.4810 O.3      106 DT      0.0000
    167 C5'       -8.3846    -3.8446   313.5359 C.3      106 DT      0.0000
    168 C4'       -7.0998    -3.8871   314.3236 C.3      106 DT      0.0000
    169 O4'       -6.5110    -2.6204   314.5156 O.3      106 DT      0.0000
    170 C3'       -7.3042    -4.4552   315.7402 C.3      106 DT      0.0000
    171 O3'       -6.9488    -5.8255   315.7419 O.3      106 DT      0.0000
    172 C2'       -6.4447    -3.5681   316.6375 C.3      106 DT      0.0000
    173 C1'       -5.5930    -2.8440   315.6729 C.3      106 DT      0.0000
    174 N1        -5.0275    -1.5480   316.0126 N.am     106 DT      0.0000
    175 C2        -3.6446    -1.4824   316.1506 C.2      106 DT      0.0000
    176 O2        -2.9749    -2.5035   316.0625 O.2      106 DT      0.0000
    177 N3        -3.0795    -0.2692   316.4046 N.am     106 DT      0.0000
    178 C4        -3.8138     0.8759   316.5247 C.2      106 DT      0.0000
    179 O4        -3.2132     1.9682   316.7799 O.2      106 DT      0.0000
    180 C5        -5.2346     0.7876   316.3531 C.2      106 DT      0.0000
    181 C7        -6.0874     2.0228   316.4406 C.3      106 DT      0.0000
    182 C6        -5.7865    -0.4110   316.0974 C.2      106 DT      0.0000
    183 H5'       -8.6857    -4.8478   313.2343 H        106 DT      0.0000
    184 H5''      -8.2707    -3.2047   312.6609 H        106 DT      0.0000
    185 H4'       -6.3897    -4.5227   313.7945 H        106 DT      0.0000
    186 H3'       -8.3513    -4.3519   316.0246 H        106 DT      0.0000
    187 H2'       -7.0618    -2.8765   317.2109 H        106 DT      0.0000
    188 H2''      -5.8338    -4.1771   317.3039 H        106 DT      0.0000
    189 H1'       -4.7860    -3.5044   315.3555 H        106 DT      0.0000
    190 H3        -2.0764    -0.2143   316.5083 H        106 DT      0.0000
    191 H6        -6.8550    -0.4793   315.9552 H        106 DT      0.0000
    192 H71       -5.4568     2.8860   316.6537 H        106 DT      0.0000
    193 H72       -6.6037     2.1754   315.4929 H        106 DT      0.0000
    194 H73       -6.8203     1.9026   317.2384 H        106 DT      0.0000
    195 P         -7.1697    -6.8914   316.8485 P.3      107 DT      0.0000
    196 OP1       -7.1568    -8.3161   316.2365 O.co2    107 DT      0.0000
    197 OP2       -8.4771    -6.5735   317.4785 O.co2    107 DT      0.0000
    198 O5'       -5.8316    -6.8374   317.7308 O.3      107 DT      0.0000
    199 C5'       -4.6777    -7.3595   317.0191 C.3      107 DT      0.0000
    200 C4'       -3.4413    -6.8775   317.6952 C.3      107 DT      0.0000
    201 O4'       -3.2878    -5.4638   317.6719 O.3      107 DT      0.0000
    202 C3'       -3.3098    -7.3126   319.1619 C.3      107 DT      0.0000
    203 O3'       -1.9897    -7.7481   319.4259 O.3      107 DT      0.0000
    204 C2'       -3.5782    -5.9786   319.8982 C.3      107 DT      0.0000
    205 C1'       -2.7543    -5.0839   318.9946 C.3      107 DT      0.0000
    206 N1        -2.9883    -3.6829   319.2923 N.am     107 DT      0.0000
    207 C2        -1.8994    -2.8280   319.3472 C.2      107 DT      0.0000
    208 O2        -0.7716    -3.2864   319.1587 O.2      107 DT      0.0000
    209 N3        -2.1275    -1.5072   319.6131 N.am     107 DT      0.0000
    210 C4        -3.3793    -1.0143   319.8201 C.2      107 DT      0.0000
    211 O4        -3.5146     0.2227   320.0434 O.2      107 DT      0.0000
    212 C5        -4.4924    -1.9022   319.7550 C.2      107 DT      0.0000
    213 C7        -5.9030    -1.4341   319.9649 C.3      107 DT      0.0000
    214 C6        -4.2503    -3.1963   319.4939 C.2      107 DT      0.0000
    215 H5'       -4.7013    -8.4492   317.0315 H        107 DT      0.0000
    216 H5''      -4.6926    -7.0051   315.9884 H        107 DT      0.0000
    217 H4'       -2.5940    -7.3019   317.1568 H        107 DT      0.0000
    218 H3'       -4.0453    -8.0731   319.4243 H        107 DT      0.0000
    219 H2'       -4.6343    -5.7094   319.8970 H        107 DT      0.0000
    220 H2''      -3.1755    -5.9972   320.9109 H        107 DT      0.0000
    221 H1'       -1.6941    -5.3255   319.0703 H        107 DT      0.0000
    222 H3        -1.3407    -0.8755   319.6575 H        107 DT      0.0000
    223 H6        -5.0847    -3.8799   319.4408 H        107 DT      0.0000
    224 H71       -5.9049    -0.3624   320.1639 H        107 DT      0.0000
    225 H72       -6.4902    -1.6383   319.0696 H        107 DT      0.0000
    226 H73       -6.3385    -1.9619   320.8133 H        107 DT      0.0000
    227 P         -1.3179    -9.0295   320.0339 P.3      108 DC      0.0000
    228 OP1       -0.6154    -9.8458   318.9659 O.co2    108 DC      0.0000
    229 OP2       -2.3922    -9.7217   320.7688 O.co2    108 DC      0.0000
    230 O5'       -0.1492    -8.2472   320.8599 O.3      108 DC      0.0000
    231 C5'        0.4817    -7.3914   319.8376 C.3      108 DC      0.0000
    232 C4'        1.5327    -6.5749   320.5341 C.3      108 DC      0.0000
    233 O4'        1.1200    -5.2665   320.7810 O.3      108 DC      0.0000
    234 C3'        2.0717    -7.1797   321.8256 C.3      108 DC      0.0000
    235 O3'        3.4825    -7.3351   321.7459 O.3      108 DC      0.0000
    236 C2'        1.5069    -6.2192   322.8744 C.3      108 DC      0.0000
    237 C1'        1.4032    -4.9203   322.1779 C.3      108 DC      0.0000
    238 N1         0.2523    -4.0746   322.5100 N.am     108 DC      0.0000
    239 C2         0.5355    -2.7348   322.7658 C.2      108 DC      0.0000
    240 O2         1.6959    -2.3126   322.7703 O.2      108 DC      0.0000
    241 N3        -0.5239    -1.9054   323.0397 N.2      108 DC      0.0000
    242 C4        -1.8084    -2.3639   323.0298 C.2      108 DC      0.0000
    243 N4        -2.7645    -1.4841   323.3066 N.pl3    108 DC      0.0000
    244 C5        -2.0816    -3.7213   322.7518 C.2      108 DC      0.0000
    245 C6        -1.0301    -4.5236   322.4870 C.2      108 DC      0.0000
    246 H5'        0.9390    -8.0082   319.0640 H        108 DC      0.0000
    247 H5''      -0.2649    -6.7331   319.3934 H        108 DC      0.0000
    248 H4'        2.3772    -6.5083   319.8482 H        108 DC      0.0000
    249 H3'        1.6188    -8.1607   321.9689 H        108 DC      0.0000
    250 H2'        0.5259    -6.5532   323.2123 H        108 DC      0.0000
    251 H2''       2.1902    -6.1400   323.7199 H        108 DC      0.0000
    252 H1'        2.3344    -4.3597   322.2589 H        108 DC      0.0000
    253 H5        -3.0923    -4.1019   322.7512 H        108 DC      0.0000
    254 H6        -1.2141    -5.5607   322.2479 H        108 DC      0.0000
    255 H41       -2.5246    -0.5235   323.5058 H        108 DC      0.0000
    256 H42       -3.7314    -1.7760   323.3179 H        108 DC      0.0000
    257 P          4.4014    -8.2745   322.6980 P.3      109 DA      0.0000
    258 OP1        5.6442    -8.6290   321.9042 O.co2    109 DA      0.0000
    259 OP2        3.6134    -9.4752   323.0435 O.co2    109 DA      0.0000
    260 O5'        4.7357    -7.3184   323.9950 O.3      109 DA      0.0000
    261 C5'        5.2990    -6.0037   323.6997 C.3      109 DA      0.0000
    262 C4'        5.4576    -5.2101   324.9550 C.3      109 DA      0.0000
    263 O4'        4.4294    -4.2451   325.1972 O.3      109 DA      0.0000
    264 C3'        5.4531    -6.0233   326.2603 C.3      109 DA      0.0000
    265 O3'        6.0536    -5.2347   327.2902 O.3      109 DA      0.0000
    266 C2'        3.9309    -6.1418   326.4749 C.3      109 DA      0.0000
    267 C1'        3.6125    -4.6541   326.2916 C.3      109 DA      0.0000
    268 N9         2.1728    -4.4809   326.1973 N.ar     109 DA      0.0000
    269 C8         1.1705    -5.4038   326.0814 C.ar     109 DA      0.0000
    270 N7        -0.0511    -4.9014   326.0628 N.ar     109 DA      0.0000
    271 C5         0.1673    -3.5352   326.1704 C.ar     109 DA      0.0000
    272 C6        -0.7208    -2.4319   326.2049 C.ar     109 DA      0.0000
    273 N6        -2.0356    -2.5257   326.1196 N.pl3    109 DA      0.0000
    274 N1        -0.1453    -1.2007   326.3374 N.ar     109 DA      0.0000
    275 C2         1.2143    -1.0570   326.4176 C.ar     109 DA      0.0000
    276 N3         2.1098    -2.0411   326.3878 N.ar     109 DA      0.0000
    277 C4         1.5210    -3.2559   326.2648 C.ar     109 DA      0.0000
    278 H5'        6.2739    -6.1286   323.2286 H        109 DA      0.0000
    279 H5''       4.6349    -5.4717   323.0184 H        109 DA      0.0000
    280 H4'        6.4073    -4.6784   324.8961 H        109 DA      0.0000
    281 H3'        5.9339    -6.9948   326.1466 H        109 DA      0.0000
    282 H2'        3.4497    -6.7686   325.7241 H        109 DA      0.0000
    283 H2''       3.6959    -6.4781   327.4847 H        109 DA      0.0000
    284 H1'        3.9557    -4.1261   327.1812 H        109 DA      0.0000
    285 H8         1.3631    -6.4641   326.0104 H        109 DA      0.0000
    286 H2         1.5953    -0.0511   326.5141 H        109 DA      0.0000
    287 H61       -2.7994    -1.8899   326.2997 H        109 DA      0.0000
    288 H62       -2.3455    -3.4340   325.8049 H        109 DA      0.0000
    289 P          7.6432    -5.1170   327.4306 P.3      110 DC      0.0000
    290 OP1        8.3723    -5.4902   326.1855 O.co2    110 DC      0.0000
    291 OP2        7.9304    -6.0473   328.5735 O.co2    110 DC      0.0000
    292 O5'        7.8707    -3.5734   327.7138 O.3      110 DC      0.0000
    293 C5'        7.9004    -2.6003   326.6261 C.3      110 DC      0.0000
    294 C4'        7.3959    -1.3361   327.3310 C.3      110 DC      0.0000
    295 O4'        6.0377    -1.5426   327.6430 O.3      110 DC      0.0000
    296 C3'        8.1182    -1.0319   328.6409 C.3      110 DC      0.0000
    297 O3'        8.6130     0.3246   328.7088 O.3      110 DC      0.0000
    298 C2'        7.0764    -1.3533   329.7231 C.3      110 DC      0.0000
    299 C1'        5.8046    -1.0361   329.0470 C.3      110 DC      0.0000
    300 N1         4.5624    -1.7186   329.3998 N.am     110 DC      0.0000
    301 C2         3.4201    -0.9207   329.3729 C.2      110 DC      0.0000
    302 O2         3.4606     0.2856   329.1660 O.2      110 DC      0.0000
    303 N3         2.2288    -1.5263   329.6260 N.2      110 DC      0.0000
    304 C4         2.1239    -2.8569   329.8594 C.2      110 DC      0.0000
    305 N4         0.9023    -3.3339   330.0903 N.pl3    110 DC      0.0000
    306 C5         3.2954    -3.6630   329.8660 C.2      110 DC      0.0000
    307 C6         4.4673    -3.0585   329.6165 C.2      110 DC      0.0000
    308 H5'        8.9111    -2.4647   326.2412 H        110 DC      0.0000
    309 H5''       7.2196    -2.8941   325.8271 H        110 DC      0.0000
    310 H4'        7.4887    -0.4835   326.6584 H        110 DC      0.0000
    311 H3'        8.9583    -1.7183   328.7468 H        110 DC      0.0000
    312 H2'        7.1182    -2.4041   330.0101 H        110 DC      0.0000
    313 H2''       7.2178    -0.7125   330.5934 H        110 DC      0.0000
    314 H1'        5.6475     0.0425   329.0337 H        110 DC      0.0000
    315 H5         3.2438    -4.7233   330.0645 H        110 DC      0.0000
    316 H6         5.3663    -3.6563   329.5868 H        110 DC      0.0000
    317 H41        0.1068    -2.7118   330.0793 H        110 DC      0.0000
    318 H42        0.7713    -4.3180   330.2765 H        110 DC      0.0000
    319 P         -8.4242     1.0386   331.6684 P.3      110 DG      0.0000
    320 OP1       -9.9047     1.1537   331.8471 O.co2    110 DG      0.0000
    321 OP2       -8.0299     0.0451   330.5835 O.co2    110 DG      0.0000
    322 O5'       -7.7813     2.5396   331.4611 O.3      110 DG      0.0000
    323 C5'       -7.0205     3.1481   332.5569 C.3      110 DG      0.0000
    324 C4'       -5.8542     3.9025   331.9226 C.3      110 DG      0.0000
    325 O4'       -4.7042     3.1071   331.8268 O.3      110 DG      0.0000
    326 C3'       -6.1314     4.4272   330.5163 C.3      110 DG      0.0000
    327 O3'       -5.5831     5.7387   330.2493 O.3      110 DG      0.0000
    328 C2'       -5.4940     3.3551   329.6140 C.3      110 DG      0.0000
    329 C1'       -4.2737     2.9792   330.4378 C.3      110 DG      0.0000
    330 N9        -3.8557     1.5936   330.1645 N.ar     110 DG      0.0000
    331 C8        -4.6537     0.4854   330.0079 C.ar     110 DG      0.0000
    332 N7        -3.9913    -0.6194   329.7894 N.ar     110 DG      0.0000
    333 C5        -2.6614    -0.2164   329.8142 C.ar     110 DG      0.0000
    334 C6        -1.4558    -0.9511   329.6578 C.2      110 DG      0.0000
    335 O6        -1.3525    -2.1703   329.4609 O.2      110 DG      0.0000
    336 N1        -0.3155    -0.1911   329.7447 N.am     110 DG      0.0000
    337 C2        -0.3421     1.1461   329.9654 C.2      110 DG      0.0000
    338 N2         0.8417     1.7495   330.0287 N.pl3    110 DG      0.0000
    339 N3        -1.4475     1.8844   330.1231 N.2      110 DG      0.0000
    340 C4        -2.5660     1.1381   330.0398 C.ar     110 DG      0.0000
    341 H5'       -7.6538     3.8380   333.1147 H        110 DG      0.0000
    342 H5''      -6.6422     2.3717   333.2218 H        110 DG      0.0000
    343 H4'       -5.6202     4.7557   332.5593 H        110 DG      0.0000
    344 H3'       -7.2078     4.4464   330.3458 H        110 DG      0.0000
    345 H2'       -6.1595     2.5037   329.4713 H        110 DG      0.0000
    346 H2''      -5.1984     3.7811   328.6552 H        110 DG      0.0000
    347 H1'       -3.4538     3.6676   330.2326 H        110 DG      0.0000
    348 H8        -5.7317     0.5244   330.0606 H        110 DG      0.0000
    349 H1         0.5796    -0.6471   329.6399 H        110 DG      0.0000
    350 H21        1.6892     1.2122   329.9136 H        110 DG      0.0000
    351 H22        0.8931     2.7449   330.1919 H        110 DG      0.0000
    352 P         -5.1755     6.0230   328.7258 P.3      109 DT      0.0000
    353 OP1       -5.2631     7.4737   328.3349 O.co2    109 DT      0.0000
    354 OP2       -6.2035     5.2146   328.0253 O.co2    109 DT      0.0000
    355 O5'       -3.6637     5.5086   328.5949 O.3      109 DT      0.0000
    356 C5'       -2.6089     6.4872   328.8625 C.3      109 DT      0.0000
    357 C4'       -1.3666     6.0706   328.1055 C.3      109 DT      0.0000
    358 O4'       -1.1818     4.6665   328.0782 O.3      109 DT      0.0000
    359 C3'       -1.3782     6.5141   326.6508 C.3      109 DT      0.0000
    360 O3'       -0.0904     6.9408   326.1557 O.3      109 DT      0.0000
    361 C2'       -1.8804     5.2840   325.9279 C.3      109 DT      0.0000
    362 C1'       -1.1299     4.2158   326.7060 C.3      109 DT      0.0000
    363 N1        -1.8928     2.9668   326.5547 N.am     109 DT      0.0000
    364 C2        -1.1656     1.7857   326.6615 C.2      109 DT      0.0000
    365 O2         0.0456     1.8165   326.8512 O.2      109 DT      0.0000
    366 N3        -1.8581     0.6134   326.5413 N.am     109 DT      0.0000
    367 C4        -3.2032     0.5896   326.3238 C.2      109 DT      0.0000
    368 O4        -3.7620    -0.5527   326.2262 O.2      109 DT      0.0000
    369 C5        -3.9206     1.8153   326.2174 C.2      109 DT      0.0000
    370 C7        -5.4048     1.8010   325.9884 C.3      109 DT      0.0000
    371 C6        -3.2391     2.9573   326.3391 C.2      109 DT      0.0000
    372 H5'       -2.9294     7.4742   328.5288 H        109 DT      0.0000
    373 H5''      -2.3955     6.5131   329.9312 H        109 DT      0.0000
    374 H4'       -0.5018     6.5201   328.5934 H        109 DT      0.0000
    375 H3'       -2.0977     7.3234   326.5268 H        109 DT      0.0000
    376 H2'       -2.9606     5.1707   326.0195 H        109 DT      0.0000
    377 H2''      -1.5751     5.2930   324.8815 H        109 DT      0.0000
    378 H1'       -0.1036     4.1071   326.3554 H        109 DT      0.0000
    379 H3        -1.3583    -0.2610   326.6160 H        109 DT      0.0000
    380 H6        -3.7673     3.8964   326.2650 H        109 DT      0.0000
    381 H71       -5.7524     0.7702   325.9197 H        109 DT      0.0000
    382 H72       -5.9052     2.2983   326.8193 H        109 DT      0.0000
    383 H73       -5.6344     2.3245   325.0603 H        109 DT      0.0000
    384 P         -0.3215     8.3883   325.3773 P.3      108 DG      0.0000
    385 OP1       -0.0759     9.5769   326.2485 O.co2    108 DG      0.0000
    386 OP2       -1.7362     8.1954   324.9717 O.co2    108 DG      0.0000
    387 O5'        0.8544     8.3283   324.2965 O.3      108 DG      0.0000
    388 C5'        2.2093     8.6252   324.7199 C.3      108 DG      0.0000
    389 C4'        3.0296     7.4220   324.2722 C.3      108 DG      0.0000
    390 O4'        2.3151     6.2326   324.5429 O.3      108 DG      0.0000
    391 C3'        3.3811     7.4170   322.7845 C.3      108 DG      0.0000
    392 O3'        4.7791     7.3261   322.5760 O.3      108 DG      0.0000
    393 C2'        2.5586     6.2784   322.2078 C.3      108 DG      0.0000
    394 C1'        2.3824     5.3600   323.3939 C.3      108 DG      0.0000
    395 N9         1.1508     4.5756   323.2704 N.ar     108 DG      0.0000
    396 C8        -0.1292     5.0259   323.1115 C.ar     108 DG      0.0000
    397 N7        -1.0198     4.0674   323.0334 N.ar     108 DG      0.0000
    398 C5        -0.2737     2.9005   323.1709 C.ar     108 DG      0.0000
    399 C6        -0.6499     1.5314   323.1804 C.2      108 DG      0.0000
    400 O6        -1.7840     1.0742   323.0814 O.2      108 DG      0.0000
    401 N1         0.3893     0.6575   323.3294 N.am     108 DG      0.0000
    402 C2         1.6886     1.0840   323.4623 C.2      108 DG      0.0000
    403 N2         2.6052     0.1252   323.5979 N.pl3    108 DG      0.0000
    404 N3         2.1094     2.3529   323.4666 N.2      108 DG      0.0000
    405 C4         1.0687     3.2072   323.3159 C.ar     108 DG      0.0000
    406 H5'        2.5703     9.5354   324.2412 H        108 DG      0.0000
    407 H5''       2.2513     8.7275   325.8043 H        108 DG      0.0000
    408 H4'        3.9566     7.4048   324.8452 H        108 DG      0.0000
    409 H3'        3.0291     8.3506   322.3459 H        108 DG      0.0000
    410 H2'        1.5962     6.6356   321.8414 H        108 DG      0.0000
    411 H2''       3.1077     5.7746   321.4122 H        108 DG      0.0000
    412 H1'        3.2412     4.6945   323.4809 H        108 DG      0.0000
    413 H8        -0.3835     6.0740   323.0554 H        108 DG      0.0000
    414 H1         0.1964    -0.3338   323.3422 H        108 DG      0.0000
    415 H21        2.3248    -0.8451   323.5989 H        108 DG      0.0000
    416 H22        3.5799     0.3692   323.6997 H        108 DG      0.0000
    417 P          5.7233     6.4014   321.7097 P.3      107 DA      0.0000
    418 OP1        7.0017     6.0723   322.4910 O.co2    107 DA      0.0000
    419 OP2        6.0414     7.1898   320.5170 O.co2    107 DA      0.0000
    420 O5'        4.9372     4.9852   321.5349 O.3      107 DA      0.0000
    421 C5'        5.1593     4.0937   322.6913 C.3      107 DA      0.0000
    422 C4'        5.8723     2.8734   322.1635 C.3      107 DA      0.0000
    423 O4'        4.9994     1.7950   321.9413 O.3      107 DA      0.0000
    424 C3'        6.5632     3.1203   320.8230 C.3      107 DA      0.0000
    425 O3'        7.8303     2.5121   320.7478 O.3      107 DA      0.0000
    426 C2'        5.5072     2.6772   319.8265 C.3      107 DA      0.0000
    427 C1'        4.6210     1.7023   320.5503 C.3      107 DA      0.0000
    428 N9         3.1948     1.9929   320.3248 N.ar     107 DA      0.0000
    429 C8         2.5779     3.2111   320.1384 C.ar     107 DA      0.0000
    430 N7         1.2815     3.1373   319.9425 N.ar     107 DA      0.0000
    431 C5         1.0239     1.7749   320.0294 C.ar     107 DA      0.0000
    432 C6        -0.1812     1.0419   319.9238 C.ar     107 DA      0.0000
    433 N6        -1.3623     1.5951   319.7113 N.pl3    107 DA      0.0000
    434 N1        -0.0726    -0.3098   320.0475 N.ar     107 DA      0.0000
    435 C2         1.1344    -0.9084   320.2720 C.ar     107 DA      0.0000
    436 N3         2.3014    -0.2781   320.3879 N.ar     107 DA      0.0000
    437 C4         2.1806     1.0646   320.2518 C.ar     107 DA      0.0000
    438 H5'        5.7740     4.5943   323.4394 H        107 DA      0.0000
    439 H5''       4.2030     3.8058   323.1280 H        107 DA      0.0000
    440 H4'        6.6241     2.5680   322.8912 H        107 DA      0.0000
    441 H3'        6.7004     4.1958   320.7099 H        107 DA      0.0000
    442 H2'        5.9770     2.1945   318.9696 H        107 DA      0.0000
    443 H2''       4.9235     3.5363   319.4959 H        107 DA      0.0000
    444 H1'        4.8370     0.6958   320.1921 H        107 DA      0.0000
    445 H8         3.1155     4.1477   320.1523 H        107 DA      0.0000
    446 H2         1.1428    -1.9845   320.3633 H        107 DA      0.0000
    447 H61       -2.2122     1.1497   320.0267 H        107 DA      0.0000
    448 H62       -1.4161     2.4787   319.2251 H        107 DA      0.0000
    449 P          8.5644     1.7673   319.5632 P.3      106 DA      0.0000
    450 OP1        9.8397     1.0417   320.0831 O.co2    106 DA      0.0000
    451 OP2        8.9746     2.8621   318.6296 O.co2    106 DA      0.0000
    452 O5'        7.6053     0.6230   319.0606 O.3      106 DA      0.0000
    453 C5'        7.7993    -0.7319   319.5164 C.3      106 DA      0.0000
    454 C4'        6.7663    -1.5863   318.8145 C.3      106 DA      0.0000
    455 O4'        5.5084    -0.9856   318.6937 O.3      106 DA      0.0000
    456 C3'        7.1821    -2.0116   317.4069 C.3      106 DA      0.0000
    457 O3'        7.3772    -3.4381   317.3755 O.3      106 DA      0.0000
    458 C2'        6.1036    -1.4051   316.5074 C.3      106 DA      0.0000
    459 C1'        4.9054    -1.3391   317.4051 C.3      106 DA      0.0000
    460 N9         3.9239    -0.3018   317.1056 N.ar     106 DA      0.0000
    461 C8         4.1144     1.0506   316.9108 C.ar     106 DA      0.0000
    462 N7         3.0014     1.7188   316.7054 N.ar     106 DA      0.0000
    463 C5         2.0118     0.7580   316.7799 C.ar     106 DA      0.0000
    464 C6         0.6075     0.8377   316.6464 C.ar     106 DA      0.0000
    465 N6        -0.0503     1.9673   316.4032 N.pl3    106 DA      0.0000
    466 N1        -0.0618    -0.3505   316.7953 N.ar     106 DA      0.0000
    467 C2         0.5769    -1.5091   317.0478 C.ar     106 DA      0.0000
    468 N3         1.8975    -1.6602   317.1866 N.ar     106 DA      0.0000
    469 C4         2.5541    -0.4880   317.0394 C.ar     106 DA      0.0000
    470 H5'        8.8027    -1.0727   319.2613 H        106 DA      0.0000
    471 H5''       7.6529    -0.7847   320.5952 H        106 DA      0.0000
    472 H4'        6.6386    -2.4937   319.4046 H        106 DA      0.0000
    473 H3'        8.1321    -1.5318   317.1719 H        106 DA      0.0000
    474 H2'        6.3923    -0.4105   316.1675 H        106 DA      0.0000
    475 H2''       5.9066    -2.0567   315.6560 H        106 DA      0.0000
    476 H1'        4.4217    -2.3141   317.4663 H        106 DA      0.0000
    477 H8         5.0883     1.5172   316.9258 H        106 DA      0.0000
    478 H2        -0.0326    -2.3952   317.1468 H        106 DA      0.0000
    479 H61       -1.0165     1.9759   316.6973 H        106 DA      0.0000
    480 H62        0.3856     2.7610   315.9560 H        106 DA      0.0000
    481 P          7.8097    -4.1358   315.9905 P.3      105 DT      0.0000
    482 OP1        8.3107    -5.5460   316.0487 O.co2    105 DT      0.0000
    483 OP2        8.7883    -3.1286   315.4779 O.co2    105 DT      0.0000
    484 O5'        6.3002    -4.2052   315.2874 O.3      105 DT      0.0000
    485 C5'        5.3259    -4.6009   316.2997 C.3      105 DT      0.0000
    486 C4'        4.1297    -5.1829   315.6168 C.3      105 DT      0.0000
    487 O4'        3.0900    -4.2686   315.4363 O.3      105 DT      0.0000
    488 C3'        4.4258    -5.7932   314.2555 C.3      105 DT      0.0000
    489 O3'        3.6587    -6.9735   313.9882 O.3      105 DT      0.0000
    490 C2'        4.1022    -4.5885   313.3622 C.3      105 DT      0.0000
    491 C1'        2.8346    -4.0642   314.0022 C.3      105 DT      0.0000
    492 N1         2.6789    -2.6155   313.7722 N.am     105 DT      0.0000
    493 C2         1.3916    -2.1225   313.6506 C.2      105 DT      0.0000
    494 O2         0.4157    -2.8736   313.6874 O.2      105 DT      0.0000
    495 N3         1.2339    -0.7734   313.4832 N.am     105 DT      0.0000
    496 C4         2.2963     0.0744   313.4347 C.2      105 DT      0.0000
    497 O4         2.0583     1.3051   313.2491 O.2      105 DT      0.0000
    498 C5         3.6106    -0.4505   313.5831 C.2      105 DT      0.0000
    499 C7         4.8139     0.4605   313.5310 C.3      105 DT      0.0000
    500 C6         3.7475    -1.7694   313.7560 C.2      105 DT      0.0000
    501 H5'        5.7679    -5.3456   316.9618 H        105 DT      0.0000
    502 H5''       5.0266    -3.7279   316.8797 H        105 DT      0.0000
    503 H4'        3.7507    -5.9821   316.2538 H        105 DT      0.0000
    504 H3'        5.4884    -6.0251   314.1835 H        105 DT      0.0000
    505 H2'        4.8993    -3.8457   313.3927 H        105 DT      0.0000
    506 H2''       3.9128    -4.9084   312.3376 H        105 DT      0.0000
    507 H1'        1.9580    -4.6193   313.6682 H        105 DT      0.0000
    508 H3         0.3013    -0.3963   313.3930 H        105 DT      0.0000
    509 H6         4.7385    -2.1781   313.8874 H        105 DT      0.0000
    510 H71        5.2353     0.4496   312.5258 H        105 DT      0.0000
    511 H72        5.5632     0.1135   314.2425 H        105 DT      0.0000
    512 H73        4.5121     1.4760   313.7875 H        105 DT      0.0000
    513 P          3.8510    -7.6197   312.4983 P.3      104 DT      0.0000
    514 OP1        4.5213    -8.9869   312.6463 O.co2    104 DT      0.0000
    515 OP2        4.7957    -6.6635   311.8285 O.co2    104 DT      0.0000
    516 O5'        2.4485    -7.7216   311.8462 O.3      104 DT      0.0000
    517 C5'        1.2491    -7.9089   312.5976 C.3      104 DT      0.0000
    518 C4'        0.1230    -7.2704   311.8497 C.3      104 DT      0.0000
    519 O4'        0.0671    -5.8706   311.7927 O.3      104 DT      0.0000
    520 C3'       -0.0946    -7.7035   310.3836 C.3      104 DT      0.0000
    521 O3'       -1.5202    -7.6417   310.2798 O.3      104 DT      0.0000
    522 C2'        0.5888    -6.5614   309.6198 C.3      104 DT      0.0000
    523 C1'       -0.0348    -5.4192   310.3956 C.3      104 DT      0.0000
    524 N1         0.6474    -4.1263   310.2894 N.am     104 DT      0.0000
    525 C2        -0.1908    -3.0032   310.2888 C.2      104 DT      0.0000
    526 O2        -1.4168    -3.1243   310.3318 O.2      104 DT      0.0000
    527 N3         0.4114    -1.7791   310.2353 N.am     104 DT      0.0000
    528 C4         1.7645    -1.6242   310.1756 C.2      104 DT      0.0000
    529 O4         2.2267    -0.4453   310.1132 O.2      104 DT      0.0000
    530 C5         2.5914    -2.7805   310.1838 C.2      104 DT      0.0000
    531 C7         4.0963    -2.6232   310.1224 C.3      104 DT      0.0000
    532 C6         1.9980    -3.9759   310.2503 C.2      104 DT      0.0000
    533 H5'        1.0532    -8.9741   312.7199 H        104 DT      0.0000
    534 H5''       1.3522    -7.4400   313.5762 H        104 DT      0.0000
    535 H4'       -0.7816    -7.5736   312.3769 H        104 DT      0.0000
    536 H3'        0.3162    -8.6868   310.1549 H        104 DT      0.0000
    537 H2'        0.3174    -6.5452   308.5643 H        104 DT      0.0000
    538 H2''       1.6705    -6.5871   309.7514 H        104 DT      0.0000
    539 H1'       -1.0828    -5.3098   310.1166 H        104 DT      0.0000
    540 H3        -0.1702    -0.9534   310.2402 H        104 DT      0.0000
    541 H6         2.6177    -4.8602   310.2740 H        104 DT      0.0000
    542 H71        4.3498    -1.5642   310.0736 H        104 DT      0.0000
    543 H72        4.4784    -3.1292   309.2358 H        104 DT      0.0000
    544 H73        4.5443    -3.0632   311.0133 H        104 DT      0.0000
    545 P         -2.3961    -8.2157   309.1336 P.3      103 DC      0.0000
    546 OP1       -3.5420    -9.0258   309.7427 O.co2    103 DC      0.0000
    547 OP2       -1.4991    -9.1232   308.3518 O.co2    103 DC      0.0000
    548 O5'       -2.8818    -6.8477   308.3942 O.3      103 DC      0.0000
    549 C5'       -3.8997    -6.0821   309.1187 C.3      103 DC      0.0000
    550 C4'       -4.7762    -5.4510   308.0682 C.3      103 DC      0.0000
    551 O4'       -4.4320    -4.1073   307.8229 O.3      103 DC      0.0000
    552 C3'       -4.7597    -6.1422   306.7038 C.3      103 DC      0.0000
    553 O3'       -5.9995    -6.0910   305.9945 O.3      103 DC      0.0000
    554 C2'       -3.6108    -5.3904   306.0176 C.3      103 DC      0.0000
    555 C1'       -3.7722    -3.9732   306.5642 C.3      103 DC      0.0000
    556 N1        -2.4226    -3.3730   306.6820 N.am     103 DC      0.0000
    557 C2        -2.3475    -1.9810   306.6993 C.2      103 DC      0.0000
    558 O2        -3.3690    -1.2837   306.6306 O.2      103 DC      0.0000
    559 N3        -1.1024    -1.4221   306.8025 N.2      103 DC      0.0000
    560 C4         0.0248    -2.1774   306.8733 C.2      103 DC      0.0000
    561 N4         1.2169    -1.5854   306.9752 N.pl3    103 DC      0.0000
    562 C5        -0.0799    -3.5961   306.8481 C.2      103 DC      0.0000
    563 C6        -1.3034    -4.1443   306.7545 C.2      103 DC      0.0000
    564 H5'       -4.4884    -6.7433   309.7547 H        103 DC      0.0000
    565 H5''      -3.4253    -5.3085   309.7226 H        103 DC      0.0000
    566 H4'       -5.8018    -5.4690   308.4370 H        103 DC      0.0000
    567 H3'       -4.4709    -7.1846   306.8379 H        103 DC      0.0000
    568 H2'       -3.7197    -5.4093   304.9333 H        103 DC      0.0000
    569 H2''      -2.6485    -5.8081   306.3136 H        103 DC      0.0000
    570 H1'       -4.3847    -3.3804   305.8849 H        103 DC      0.0000
    571 H5         0.8021    -4.2171   306.9029 H        103 DC      0.0000
    572 H6        -1.4007    -5.2198   306.7364 H        103 DC      0.0000
    573 H41        1.2802    -0.5776   306.9959 H        103 DC      0.0000
    574 H42        2.0556    -2.1453   307.0316 H        103 DC      0.0000
    575 P         -6.1722    -5.9333   304.3625 P.3      102 DA      0.0000
    576 OP1       -7.5274    -6.4830   303.9730 O.co2    102 DA      0.0000
    577 OP2       -5.0118    -6.6704   303.7924 O.co2    102 DA      0.0000
    578 O5'       -6.2130    -4.3461   304.1970 O.3      102 DA      0.0000
    579 C5'       -7.4240    -3.6329   304.6624 C.3      102 DA      0.0000
    580 C4'       -7.4096    -2.3927   303.7851 C.3      102 DA      0.0000
    581 O4'       -6.2296    -1.6242   304.0524 O.3      102 DA      0.0000
    582 C3'       -7.3342    -2.7087   302.2807 C.3      102 DA      0.0000
    583 O3'       -7.6970    -1.5869   301.4916 O.3      102 DA      0.0000
    584 C2'       -5.8136    -2.8619   302.0932 C.3      102 DA      0.0000
    585 C1'       -5.4550    -1.5526   302.8479 C.3      102 DA      0.0000
    586 N9        -4.0037    -1.6008   302.9933 N.ar     102 DA      0.0000
    587 C8        -3.2255    -2.7344   303.0662 C.ar     102 DA      0.0000
    588 N7        -1.9462    -2.4800   303.1808 N.ar     102 DA      0.0000
    589 C5        -1.8879    -1.0748   303.1744 C.ar     102 DA      0.0000
    590 C6        -0.7811    -0.1875   303.2744 C.ar     102 DA      0.0000
    591 N6         0.4866    -0.5915   303.3972 N.pl3    102 DA      0.0000
    592 N1        -1.1136     1.1332   303.2392 N.ar     102 DA      0.0000
    593 C2        -2.4000     1.5437   303.1203 C.ar     102 DA      0.0000
    594 N3        -3.4840     0.7679   303.0289 N.ar     102 DA      0.0000
    595 C4        -3.1437    -0.5325   303.0564 C.ar     102 DA      0.0000
    596 H5'       -8.3228    -4.2265   304.4956 H        102 DA      0.0000
    597 H5''      -7.3310    -3.3619   305.7140 H        102 DA      0.0000
    598 H4'       -8.2941    -1.7892   303.9891 H        102 DA      0.0000
    599 H3'       -7.8851    -3.6097   302.0111 H        102 DA      0.0000
    600 H2'       -5.4131    -3.7540   302.5749 H        102 DA      0.0000
    601 H2''      -5.5305    -2.8109   301.0419 H        102 DA      0.0000
    602 H1'       -5.7484    -0.6833   302.2595 H        102 DA      0.0000
    603 H8        -3.6306    -3.7350   303.0321 H        102 DA      0.0000
    604 H2        -2.5663     2.6105   303.0971 H        102 DA      0.0000
    605 H61        0.7021    -1.5779   303.4220 H        102 DA      0.0000
    606 H62        1.2293     0.0895   303.4653 H        102 DA      0.0000
    607 P         -8.7937    -1.7174   300.3507 P.3      101 DC      0.0000
    608 OP1      -10.0887    -1.5631   301.1310 O.co2    101 DC      0.0000
    609 OP2       -8.7070    -2.9897   299.6251 O.co2    101 DC      0.0000
    610 O5'       -8.3660    -0.4648   299.3748 O.3      101 DC      0.0000
    611 C5'       -8.2235     0.8463   300.0439 C.3      101 DC      0.0000
    612 C4'       -7.0834     1.5900   299.3998 C.3      101 DC      0.0000
    613 O4'       -5.8292     1.3802   300.0370 O.3      101 DC      0.0000
    614 C3'       -6.8820     1.2135   297.9220 C.3      101 DC      0.0000
    615 O3'       -6.4197     2.2862   297.1107 O.3      101 DC      0.0000
    616 C2'       -5.7325     0.1662   298.0877 C.3      101 DC      0.0000
    617 C1'       -4.8746     1.1340   298.9833 C.3      101 DC      0.0000
    618 N1        -3.6143     0.4803   299.2212 N.am     101 DC      0.0000
    619 C2        -2.5147     1.2612   299.5383 C.2      101 DC      0.0000
    620 O2        -2.4303     2.4864   299.6788 O.2      101 DC      0.0000
    621 N3        -1.3169     0.6322   299.7365 N.2      101 DC      0.0000
    622 C4        -1.1828    -0.7240   299.6205 C.2      101 DC      0.0000
    623 N4         0.0110    -1.2982   299.8366 N.pl3    101 DC      0.0000
    624 C5        -2.3200    -1.5120   299.2909 C.2      101 DC      0.0000
    625 C6        -3.4804    -0.8739   299.0992 C.2      101 DC      0.0000
    626 H5'       -9.1449     1.4179   299.9324 H        101 DC      0.0000
    627 H5''      -8.0114     0.6962   301.1025 H        101 DC      0.0000
    628 H4'       -7.3092     2.6554   299.4466 H        101 DC      0.0000
    629 H3'       -7.7784     0.7564   297.5030 H        101 DC      0.0000
    630 H2'       -6.0439    -0.7414   298.6048 H        101 DC      0.0000
    631 H2''      -5.2418    -0.0533   297.1394 H        101 DC      0.0000
    632 H1'       -4.6980     2.0614   298.4383 H        101 DC      0.0000
    633 H5        -2.2495    -2.5858   299.1988 H        101 DC      0.0000
    634 H6        -4.3511    -1.4561   298.8359 H        101 DC      0.0000
    635 H41        0.8094    -0.7283   300.0771 H        101 DC      0.0000
    636 H42        0.1109    -2.3003   299.7587 H        101 DC      0.0000
    637 P          9.7331     2.3767   333.7099 P.3      111 DG      0.0000
    638 OP1       11.1685     2.0010   333.7084 O.co2    111 DG      0.0000
    639 OP2        9.0462     1.4981   334.7656 O.co2    111 DG      0.0000
    640 O5'        9.3946     3.9211   333.8883 O.3      111 DG      0.0000
    641 C5'        9.0092     4.8880   332.8883 C.3      111 DG      0.0000
    642 C4'        7.7792     5.6173   333.3871 C.3      111 DG      0.0000
    643 O4'        6.5853     4.9924   332.9680 O.3      111 DG      0.0000
    644 C3'        7.6471     5.8457   334.8793 C.3      111 DG      0.0000
    645 O3'        7.4406     7.2498   335.1913 O.3      111 DG      0.0000
    646 C2'        6.4898     4.9604   335.3012 C.3      111 DG      0.0000
    647 C1'        5.6607     4.8391   334.0455 C.3      111 DG      0.0000
    648 N9         4.9758     3.5340   334.0165 N.ar     111 DG      0.0000
    649 C8         5.4839     2.2771   334.2454 C.ar     111 DG      0.0000
    650 N7         4.5945     1.3142   334.1557 N.ar     111 DG      0.0000
    651 C5         3.4144     1.9819   333.8386 C.ar     111 DG      0.0000
    652 C6         2.0965     1.5137   333.6127 C.2      111 DG      0.0000
    653 O6         1.6857     0.3531   333.6340 O.2      111 DG      0.0000
    654 N1         1.1740     2.4839   333.3312 N.am     111 DG      0.0000
    655 C2         1.4695     3.7429   333.2706 C.2      111 DG      0.0000
    656 N2         0.4356     4.4300   332.9738 N.pl3    111 DG      0.0000
    657 N3         2.7348     4.3009   333.4793 N.2      111 DG      0.0000
    658 C4         3.6335     3.3440   333.7519 C.ar     111 DG      0.0000
    659 H5'        9.8206     5.5985   332.7296 H        111 DG      0.0000
    660 H5''       8.7797     4.3776   331.9529 H        111 DG      0.0000
    661 H4'        7.7932     6.6031   332.9224 H        111 DG      0.0000
    662 H3'        8.5559     5.5019   335.3733 H        111 DG      0.0000
    663 H2'        6.8461     3.9837   335.6282 H        111 DG      0.0000
    664 H2''       5.9134     5.4395   336.0927 H        111 DG      0.0000
    665 H1'        4.9234     5.6413   334.0136 H        111 DG      0.0000
    666 H8         6.5230     2.0971   334.4784 H        111 DG      0.0000
    667 H1         0.2180     2.2050   333.1628 H        111 DG      0.0000
    668 H21       -0.4519     3.9701   332.8294 H        111 DG      0.0000
    669 H22        0.5050     5.4335   332.8833 H        111 DG      0.0000
    670 P          6.9900     7.7485   336.6198 P.3      112 DT      0.0000
    671 OP1        7.6563     8.9994   337.1315 O.co2    112 DT      0.0000
    672 OP2        7.5066     6.6264   337.5385 O.co2    112 DT      0.0000
    673 O5'        5.4401     7.7558   336.6484 O.3      112 DT      0.0000
    674 C5'        4.6486     8.9671   336.5044 C.3      112 DT      0.0000
    675 C4'        3.2115     8.4930   336.5619 C.3      112 DT      0.0000
    676 O4'        3.0935     7.1144   336.2868 O.3      112 DT      0.0000
    677 C3'        2.4946     8.6834   337.8747 C.3      112 DT      0.0000
    678 O3'        1.4259     9.6227   337.6864 O.3      112 DT      0.0000
    679 C2'        1.9672     7.3034   338.2669 C.3      112 DT      0.0000
    680 C1'        1.8634     6.6483   336.9141 C.3      112 DT      0.0000
    681 N1         1.9476     5.1909   337.0108 N.am     112 DT      0.0000
    682 C2         0.7959     4.4785   336.8128 C.2      112 DT      0.0000
    683 O2        -0.2817     5.0191   336.5747 O.2      112 DT      0.0000
    684 N3         0.8845     3.1149   336.8939 N.am     112 DT      0.0000
    685 C4         2.0439     2.4676   337.1498 C.2      112 DT      0.0000
    686 O4         1.9693     1.2118   337.1951 O.2      112 DT      0.0000
    687 C5         3.2396     3.2298   337.3495 C.2      112 DT      0.0000
    688 C7         4.5420     2.5529   337.6294 C.3      112 DT      0.0000
    689 C6         3.1436     4.5630   337.2680 C.2      112 DT      0.0000
    690 H5'        4.8573     9.6620   337.3179 H        112 DT      0.0000
    691 H5''       4.8522     9.4391   335.5432 H        112 DT      0.0000
    692 H4'        2.6530     9.0330   335.7974 H        112 DT      0.0000
    693 H3'        3.1879     9.0497   338.6317 H        112 DT      0.0000
    694 H2'        2.6665     6.7760   338.9157 H        112 DT      0.0000
    695 H2''       0.9865     7.3819   338.7361 H        112 DT      0.0000
    696 H1'        0.9771     6.9724   336.3688 H        112 DT      0.0000
    697 H3         0.0467     2.5679   336.7564 H        112 DT      0.0000
    698 H6         4.0310     5.1623   337.4084 H        112 DT      0.0000
    699 H71        5.1486     2.5425   336.7239 H        112 DT      0.0000
    700 H72        4.3567     1.5291   337.9542 H        112 DT      0.0000
    701 H73        5.0708     3.0932   338.4147 H        112 DT      0.0000
    702 P          1.2067    10.6023   338.9664 P.3      113 DG      0.0000
    703 OP1        0.8373    11.8957   338.2513 O.co2    113 DG      0.0000
    704 OP2        2.4456    10.6764   339.7199 O.co2    113 DG      0.0000
    705 O5'       -0.0717     9.7908   339.5759 O.3      113 DG      0.0000
    706 C5'       -1.0190     9.4801   338.4853 C.3      113 DG      0.0000
    707 C4'       -1.9940     8.4652   339.0053 C.3      113 DG      0.0000
    708 O4'       -1.6513     7.1171   338.8248 O.3      113 DG      0.0000
    709 C3'       -2.2927     8.6498   340.5134 C.3      113 DG      0.0000
    710 O3'       -3.7278     8.7614   340.6722 O.3      113 DG      0.0000
    711 C2'       -1.6342     7.4530   341.1660 C.3      113 DG      0.0000
    712 C1'       -1.7819     6.3892   340.0844 C.3      113 DG      0.0000
    713 N9        -0.7972     5.3149   340.2539 N.ar     113 DG      0.0000
    714 C8         0.5250     5.4113   340.5901 C.ar     113 DG      0.0000
    715 N7         1.1541     4.2600   340.6759 N.ar     113 DG      0.0000
    716 C5         0.1635     3.3379   340.3459 C.ar     113 DG      0.0000
    717 C6         0.2073     1.9175   340.2515 C.2      113 DG      0.0000
    718 O6         1.1750     1.1664   340.4439 O.2      113 DG      0.0000
    719 N1        -0.9925     1.3326   339.9165 N.am     113 DG      0.0000
    720 C2        -2.1156     2.0691   339.6927 C.2      113 DG      0.0000
    721 N2        -3.1908     1.3324   339.3839 N.pl3    113 DG      0.0000
    722 N3        -2.2062     3.3952   339.7638 N.2      113 DG      0.0000
    723 C4        -1.0352     3.9686   340.0903 C.ar     113 DG      0.0000
    724 H5'       -1.5487    10.3840   338.1848 H        113 DG      0.0000
    725 H5''      -0.4782     9.0689   337.6329 H        113 DG      0.0000
    726 H4'       -2.9323     8.6269   338.4748 H        113 DG      0.0000
    727 H3'       -1.8165     9.5638   340.8682 H        113 DG      0.0000
    728 H2'       -0.5856     7.6495   341.3889 H        113 DG      0.0000
    729 H2''      -2.1719     7.1620   342.0684 H        113 DG      0.0000
    730 H1'       -2.7832     5.9627   340.1433 H        113 DG      0.0000
    731 H8         1.0133     6.3576   340.7708 H        113 DG      0.0000
    732 H1        -1.0414     0.3271   339.8342 H        113 DG      0.0000
    733 H21       -3.1162     0.3264   339.3337 H        113 DG      0.0000
    734 H22       -4.0761     1.7829   339.2012 H        113 DG      0.0000
    735 P         -4.3757     9.0716   342.0607 P.3      114 DA      0.0000
    736 OP1       -4.5519    10.5124   342.4160 O.co2    114 DA      0.0000
    737 OP2       -3.2156     8.5010   342.9564 O.co2    114 DA      0.0000
    738 O5'       -5.5787     8.0690   342.3098 O.3      114 DA      0.0000
    739 C5'       -6.3052     7.3813   341.2807 C.3      114 DA      0.0000
    740 C4'       -6.4051     5.9405   341.7551 C.3      114 DA      0.0000
    741 O4'       -5.1479     5.3049   341.6647 O.3      114 DA      0.0000
    742 C3'       -6.9065     5.7319   343.1841 C.3      114 DA      0.0000
    743 O3'       -7.9230     4.7097   343.2364 O.3      114 DA      0.0000
    744 C2'       -5.6203     5.3359   343.9196 C.3      114 DA      0.0000
    745 C1'       -4.9809     4.4734   342.8420 C.3      114 DA      0.0000
    746 N9        -3.5585     4.1999   343.0704 N.ar     114 DA      0.0000
    747 C8        -2.5219     5.0631   343.2861 C.ar     114 DA      0.0000
    748 N7        -1.3604     4.4702   343.4511 N.ar     114 DA      0.0000
    749 C5        -1.6525     3.1217   343.3109 C.ar     114 DA      0.0000
    750 C6        -0.8286     1.9760   343.3589 C.ar     114 DA      0.0000
    751 N6         0.4881     2.0016   343.5786 N.pl3    114 DA      0.0000
    752 N1        -1.4734     0.7865   343.1691 N.ar     114 DA      0.0000
    753 C2        -2.8079     0.7379   342.9513 C.ar     114 DA      0.0000
    754 N3        -3.6451     1.7728   342.8931 N.ar     114 DA      0.0000
    755 C4        -2.9935     2.9350   343.0799 C.ar     114 DA      0.0000
    756 H5'       -5.7685     7.4350   340.3336 H        114 DA      0.0000
    757 H5''      -7.3012     7.8110   341.1730 H        114 DA      0.0000
    758 H4'       -7.0884     5.4184   341.0853 H        114 DA      0.0000
    759 H3'       -7.2949     6.6679   343.5855 H        114 DA      0.0000
    760 H2'       -5.0073     6.2030   344.1650 H        114 DA      0.0000
    761 H2''      -5.8433     4.7487   344.8105 H        114 DA      0.0000
    762 H1'       -5.5322     3.5400   342.7274 H        114 DA      0.0000
    763 H8        -2.6456     6.1355   343.3182 H        114 DA      0.0000
    764 H2        -3.2396    -0.2421   342.8099 H        114 DA      0.0000
    765 H61        1.0754     2.8175   343.4812 H        114 DA      0.0000
    766 H62        1.0190     1.1597   343.4071 H        114 DA      0.0000
    767 P         -9.1042     4.7024   344.3778 P.3      115 DA      0.0000
    768 OP1      -10.4519     4.8217   343.7108 O.co2    115 DA      0.0000
    769 OP2       -8.7045     5.8563   345.2088 O.co2    115 DA      0.0000
    770 O5'       -9.0604     3.1986   344.9087 O.3      115 DA      0.0000
    771 C5'       -9.3177     2.0630   344.0843 C.3      115 DA      0.0000
    772 C4'       -8.4883     0.9031   344.6066 C.3      115 DA      0.0000
    773 O4'       -7.1264     1.2249   344.6348 O.3      115 DA      0.0000
    774 C3'       -8.8459     0.3466   345.9740 C.3      115 DA      0.0000
    775 O3'       -9.2904    -1.0076   345.8961 O.3      115 DA      0.0000
    776 C2'       -7.5746     0.5689   346.8027 C.3      115 DA      0.0000
    777 C1'       -6.4808     0.6341   345.8089 C.3      115 DA      0.0000
    778 N9        -5.2764     1.4409   346.0769 N.ar     115 DA      0.0000
    779 C8        -5.1326     2.8023   346.1921 C.ar     115 DA      0.0000
    780 N7        -3.8935     3.1988   346.3614 N.ar     115 DA      0.0000
    781 C5        -3.1595     2.0176   346.3244 C.ar     115 DA      0.0000
    782 C6        -1.7631     1.7654   346.4449 C.ar     115 DA      0.0000
    783 N6        -0.8276     2.6871   346.6365 N.pl3    115 DA      0.0000
    784 N1        -1.3879     0.4489   346.3467 N.ar     115 DA      0.0000
    785 C2        -2.3221    -0.5278   346.1576 C.ar     115 DA      0.0000
    786 N3        -3.6355    -0.3623   346.0498 N.ar     115 DA      0.0000
    787 C4        -3.9889     0.9355   346.1416 C.ar     115 DA      0.0000
    788 H5'       -9.0372     2.2832   343.0543 H        115 DA      0.0000
    789 H5''     -10.3764     1.8078   344.1303 H        115 DA      0.0000
    790 H4'       -8.6044     0.0866   343.8939 H        115 DA      0.0000
    791 H3'       -9.6473     0.9521   346.3972 H        115 DA      0.0000
    792 H2'       -7.6401     1.5015   347.3630 H        115 DA      0.0000
    793 H2''      -7.4168    -0.2686   347.4823 H        115 DA      0.0000
    794 H1'       -6.1721    -0.3819   345.5628 H        115 DA      0.0000
    795 H8        -5.9670     3.4866   346.1473 H        115 DA      0.0000
    796 H2        -1.9551    -1.5411   346.0885 H        115 DA      0.0000
    797 H61       -1.0467     3.6176   346.9627 H        115 DA      0.0000
    798 H62        0.1362     2.4500   346.4497 H        115 DA      0.0000
    799 P        -10.4151    -1.6896   346.8523 P.3      116 DT      0.0000
    800 OP1      -11.3622    -2.5792   346.0550 O.co2    116 DT      0.0000
    801 OP2      -11.0640    -0.6887   347.6730 O.co2    116 DT      0.0000
    802 O5'       -9.5223    -2.8058   347.6661 O.3      116 DT      0.0000
    803 C5'       -8.5584    -3.4402   346.7210 C.3      116 DT      0.0000
    804 C4'       -7.2772    -3.5439   347.5087 C.3      116 DT      0.0000
    805 O4'       -6.6286    -2.3068   347.7007 O.3      116 DT      0.0000
    806 C3'       -7.5084    -4.1016   348.9253 C.3      116 DT      0.0000
    807 O3'       -7.2188    -5.4873   348.9269 O.3      116 DT      0.0000
    808 C2'       -6.6076    -3.2566   349.8225 C.3      116 DT      0.0000
    809 C1'       -5.7223    -2.5740   348.8579 C.3      116 DT      0.0000
    810 N1        -5.0957    -1.3064   349.1977 N.am     116 DT      0.0000
    811 C2        -3.7111    -1.3068   349.3356 C.2      116 DT      0.0000
    812 O2        -3.0909    -2.3587   349.2476 O.2      116 DT      0.0000
    813 N3        -3.0889    -0.1219   349.5896 N.am     116 DT      0.0000
    814 C4        -3.7677     1.0569   349.7097 C.2      116 DT      0.0000
    815 O4        -3.1156     2.1193   349.9649 O.2      116 DT      0.0000
    816 C5        -5.1910     1.0365   349.5382 C.2      116 DT      0.0000
    817 C7        -5.9839     2.3110   349.6257 C.3      116 DT      0.0000
    818 C6        -5.7995    -0.1345   349.2824 C.2      116 DT      0.0000
    819 H5'       -8.9071    -4.4279   346.4193 H        116 DT      0.0000
    820 H5''      -8.4142    -2.8065   345.8459 H        116 DT      0.0000
    821 H4'       -6.5982    -4.2127   346.9796 H        116 DT      0.0000
    822 H3'       -8.5495    -3.9485   349.2096 H        116 DT      0.0000
    823 H2'       -7.1910    -2.5363   350.3959 H        116 DT      0.0000
    824 H2''      -6.0265    -3.8940   350.4889 H        116 DT      0.0000
    825 H1'       -4.9477    -3.2721   348.5406 H        116 DT      0.0000
    826 H3        -2.0842    -0.1150   349.6933 H        116 DT      0.0000
    827 H6        -6.8701    -0.1517   349.1402 H        116 DT      0.0000
    828 H71       -5.3129     3.1431   349.8387 H        116 DT      0.0000
    829 H72       -6.4924     2.4880   348.6779 H        116 DT      0.0000
    830 H73       -6.7218     2.2258   350.4235 H        116 DT      0.0000
    831 P         -7.4903    -6.5415   350.0336 P.3      117 DT      0.0000
    832 OP1       -7.5455    -7.9651   349.4215 O.co2    117 DT      0.0000
    833 OP2       -8.7810    -6.1615   350.6635 O.co2    117 DT      0.0000
    834 O5'       -6.1512    -6.5514   350.9159 O.3      117 DT      0.0000
    835 C5'       -5.0235    -7.1279   350.2041 C.3      117 DT      0.0000
    836 C4'       -3.7655    -6.7055   350.8803 C.3      117 DT      0.0000
    837 O4'       -3.5447    -5.3007   350.8570 O.3      117 DT      0.0000
    838 C3'       -3.6550    -7.1464   352.3469 C.3      117 DT      0.0000
    839 O3'       -2.3571    -7.6444   352.6110 O.3      117 DT      0.0000
    840 C2'       -3.8593    -5.8010   353.0832 C.3      117 DT      0.0000
    841 C1'       -2.9937    -4.9467   352.1797 C.3      117 DT      0.0000
    842 N1        -3.1606    -3.5361   352.4774 N.am     117 DT      0.0000
    843 C2        -2.0322    -2.7342   352.5322 C.2      117 DT      0.0000
    844 O2        -0.9276    -3.2458   352.3438 O.2      117 DT      0.0000
    845 N3        -2.1970    -1.4040   352.7981 N.am     117 DT      0.0000
    846 C4        -3.4238    -0.8520   353.0051 C.2      117 DT      0.0000
    847 O4        -3.5000     0.3901   353.2284 O.2      117 DT      0.0000
    848 C5        -4.5781    -1.6857   352.9401 C.2      117 DT      0.0000
    849 C7        -5.9647    -1.1509   353.1500 C.3      117 DT      0.0000
    850 C6        -4.3980    -2.9898   352.6789 C.2      117 DT      0.0000
    851 H5'       -5.0991    -8.2152   350.2165 H        117 DT      0.0000
    852 H5''      -5.0215    -6.7733   349.1734 H        117 DT      0.0000
    853 H4'       -2.9394    -7.1699   350.3418 H        117 DT      0.0000
    854 H3'       -4.4259    -7.8709   352.6093 H        117 DT      0.0000
    855 H2'       -4.9015    -5.4818   353.0820 H        117 DT      0.0000
    856 H2''      -3.4580    -5.8389   354.0960 H        117 DT      0.0000
    857 H1'       -1.9463    -5.2386   352.2553 H        117 DT      0.0000
    858 H3        -1.3809    -0.8105   352.8425 H        117 DT      0.0000
    859 H6        -5.2641    -3.6328   352.6259 H        117 DT      0.0000
    860 H71       -5.9155    -0.0803   353.3489 H        117 DT      0.0000
    861 H72       -6.5610    -1.3267   352.2547 H        117 DT      0.0000
    862 H73       -6.4249    -1.6573   353.9984 H        117 DT      0.0000
    863 P         -1.7472    -8.9564   353.2189 P.3      118 DC      0.0000
    864 OP1       -1.0845    -9.8052   352.1510 O.co2    118 DC      0.0000
    865 OP2       -2.8533    -9.5965   353.9539 O.co2    118 DC      0.0000
    866 O5'       -0.5425    -8.2307   354.0449 O.3      118 DC      0.0000
    867 C5'        0.1285    -7.4060   353.0227 C.3      118 DC      0.0000
    868 C4'        1.2173    -6.6405   353.7192 C.3      118 DC      0.0000
    869 O4'        0.8674    -5.3140   353.9661 O.3      118 DC      0.0000
    870 C3'        1.7268    -7.2704   355.0106 C.3      118 DC      0.0000
    871 O3'        3.1286    -7.4929   354.9310 O.3      118 DC      0.0000
    872 C2'        1.2085    -6.2840   356.0594 C.3      118 DC      0.0000
    873 C1'        1.1668    -4.9817   355.3630 C.3      118 DC      0.0000
    874 N1         0.0576    -4.0820   355.6951 N.am     118 DC      0.0000
    875 C2         0.4044    -2.7572   355.9509 C.2      118 DC      0.0000
    876 O2         1.5837    -2.3909   355.9554 O.2      118 DC      0.0000
    877 N3        -0.6142    -1.8782   356.2247 N.2      118 DC      0.0000
    878 C4        -1.9191    -2.2749   356.2148 C.2      118 DC      0.0000
    879 N4        -2.8322    -1.3505   356.4917 N.pl3    118 DC      0.0000
    880 C5        -2.2568    -3.6178   355.9368 C.2      118 DC      0.0000
    881 C6        -1.2448    -4.4693   355.6720 C.2      118 DC      0.0000
    882 H5'        0.5559    -8.0439   352.2490 H        118 DC      0.0000
    883 H5''      -0.5858    -6.7128   352.5785 H        118 DC      0.0000
    884 H4'        2.0640    -6.6143   353.0332 H        118 DC      0.0000
    885 H3'        1.2276    -8.2286   355.1539 H        118 DC      0.0000
    886 H2'        0.2127    -6.5708   356.3973 H        118 DC      0.0000
    887 H2''       1.8948    -6.2375   356.9049 H        118 DC      0.0000
    888 H1'        2.1237    -4.4661   355.4439 H        118 DC      0.0000
    889 H5        -3.2845    -3.9497   355.9362 H        118 DC      0.0000
    890 H6        -1.4780    -5.4964   355.4330 H        118 DC      0.0000
    891 H41       -2.5467    -0.4025   356.6909 H        118 DC      0.0000
    892 H42       -3.8119    -1.5959   356.5030 H        118 DC      0.0000
    893 P          4.0016    -8.4751   355.8830 P.3      119 DA      0.0000
    894 OP1        5.2261    -8.8885   355.0893 O.co2    119 DA      0.0000
    895 OP2        3.1572    -9.6368   356.2285 O.co2    119 DA      0.0000
    896 O5'        4.3811    -7.5360   357.1800 O.3      119 DA      0.0000
    897 C5'        5.0065    -6.2496   356.8848 C.3      119 DA      0.0000
    898 C4'        5.2028    -5.4645   358.1401 C.3      119 DA      0.0000
    899 O4'        4.2218    -4.4516   358.3822 O.3      119 DA      0.0000
    900 C3'        5.1595    -6.2766   359.4453 C.3      119 DA      0.0000
    901 O3'        5.7970    -5.5176   360.4752 O.3      119 DA      0.0000
    902 C2'        3.6334    -6.3223   359.6599 C.3      119 DA      0.0000
    903 C1'        3.3863    -4.8211   359.4766 C.3      119 DA      0.0000
    904 N9         1.9566    -4.5795   359.3823 N.ar     119 DA      0.0000
    905 C8         0.9114    -5.4535   359.2665 C.ar     119 DA      0.0000
    906 N7        -0.2849    -4.8934   359.2479 N.ar     119 DA      0.0000
    907 C5        -0.0015    -3.5392   359.3554 C.ar     119 DA      0.0000
    908 C6        -0.8360    -2.3948   359.3899 C.ar     119 DA      0.0000
    909 N6        -2.1538    -2.4257   359.3047 N.pl3    119 DA      0.0000
    910 N1        -0.2024    -1.1924   359.5225 N.ar     119 DA      0.0000
    911 C2         1.1625    -1.1138   359.6027 C.ar     119 DA      0.0000
    912 N3         2.0101    -2.1395   359.5728 N.ar     119 DA      0.0000
    913 C4         1.3639    -3.3248   359.4498 C.ar     119 DA      0.0000
    914 H5'        5.9744    -6.4209   356.4136 H        119 DA      0.0000
    915 H5''       4.3686    -5.6866   356.2035 H        119 DA      0.0000
    916 H4'        6.1768    -4.9787   358.0812 H        119 DA      0.0000
    917 H3'        5.5934    -7.2700   359.3316 H        119 DA      0.0000
    918 H2'        3.1229    -6.9254   358.9091 H        119 DA      0.0000
    919 H2''       3.3826    -6.6470   360.6698 H        119 DA      0.0000
    920 H1'        3.7543    -4.3101   360.3663 H        119 DA      0.0000
    921 H8         1.0532    -6.5218   359.1955 H        119 DA      0.0000
    922 H2         1.5911    -0.1272   359.6991 H        119 DA      0.0000
    923 H61       -2.8864    -1.7542   359.4847 H        119 DA      0.0000
    924 H62       -2.5067    -3.3182   358.9899 H        119 DA      0.0000
    925 P          7.3904    -5.4758   360.6157 P.3      120 DC      0.0000
    926 OP1        8.1008    -5.8834   359.3706 O.co2    120 DC      0.0000
    927 OP2        7.6329    -6.4188   361.7586 O.co2    120 DC      0.0000
    928 O5'        7.6912    -3.9448   360.8988 O.3      120 DC      0.0000
    929 C5'        7.7673    -2.9743   359.8111 C.3      120 DC      0.0000
    930 C4'        7.3237    -1.6875   360.5161 C.3      120 DC      0.0000
    931 O4'        5.9573    -1.8289   360.8281 O.3      120 DC      0.0000
    932 C3'        8.0597    -1.4180   361.8260 C.3      120 DC      0.0000
    933 O3'        8.6187    -0.0867   361.8939 O.3      120 DC      0.0000
    934 C2'        7.0037    -1.6894   362.9082 C.3      120 DC      0.0000
    935 C1'        5.7485    -1.3118   362.2320 C.3      120 DC      0.0000
    936 N1         4.4752    -1.9343   362.5848 N.am     120 DC      0.0000
    937 C2         3.3723    -1.0828   362.5580 C.2      120 DC      0.0000
    938 O2         3.4703     0.1202   362.3510 O.2      120 DC      0.0000
    939 N3         2.1535    -1.6308   362.8111 N.2      120 DC      0.0000
    940 C4         1.9852    -2.9549   363.0444 C.2      120 DC      0.0000
    941 N4         0.7422    -3.3732   363.2754 N.pl3    120 DC      0.0000
    942 C5         3.1169    -3.8160   363.0510 C.2      120 DC      0.0000
    943 C6         4.3163    -3.2682   362.8016 C.2      120 DC      0.0000
    944 H5'        8.7834    -2.8871   359.4263 H        120 DC      0.0000
    945 H5''       7.0733    -3.2353   359.0121 H        120 DC      0.0000
    946 H4'        7.4571    -0.8402   359.8434 H        120 DC      0.0000
    947 H3'        8.8661    -2.1437   361.9319 H        120 DC      0.0000
    948 H2'        6.9954    -2.7410   363.1952 H        120 DC      0.0000
    949 H2''       7.1756    -1.0561   363.7785 H        120 DC      0.0000
    950 H1'        5.6431    -0.2270   362.2188 H        120 DC      0.0000
    951 H5         3.0148    -4.8727   363.2495 H        120 DC      0.0000
    952 H6         5.1857    -3.9082   362.7718 H        120 DC      0.0000
    953 H41       -0.0227    -2.7138   363.2643 H        120 DC      0.0000
    954 H42        0.5644    -4.3499   363.4615 H        120 DC      0.0000
    955 P         -8.3651     1.4394   364.8534 P.3      120 DG      0.0000
    956 OP1       -9.8384     1.6250   365.0322 O.co2    120 DG      0.0000
    957 OP2       -8.0186     0.4281   363.7686 O.co2    120 DG      0.0000
    958 O5'       -7.6513     2.9079   364.6462 O.3      120 DG      0.0000
    959 C5'       -6.8623     3.4795   365.7419 C.3      120 DG      0.0000
    960 C4'       -5.6614     4.1774   365.1077 C.3      120 DG      0.0000
    961 O4'       -4.5507     3.3280   365.0118 O.3      120 DG      0.0000
    962 C3'       -5.9132     4.7147   363.7013 C.3      120 DG      0.0000
    963 O3'       -5.3030     5.9986   363.4343 O.3      120 DG      0.0000
    964 C2'       -5.3277     3.6134   362.7990 C.3      120 DG      0.0000
    965 C1'       -4.1267     3.1797   363.6229 C.3      120 DG      0.0000
    966 N9        -3.7752     1.7757   363.3495 N.ar     120 DG      0.0000
    967 C8        -4.6253     0.7068   363.1929 C.ar     120 DG      0.0000
    968 N7        -4.0163    -0.4283   362.9745 N.ar     120 DG      0.0000
    969 C5        -2.6687    -0.0891   362.9993 C.ar     120 DG      0.0000
    970 C6        -1.4996    -0.8805   362.8428 C.2      120 DG      0.0000
    971 O6        -1.4545    -2.1033   362.6460 O.2      120 DG      0.0000
    972 N1        -0.3243    -0.1759   362.9297 N.am     120 DG      0.0000
    973 C2        -0.2870     1.1611   363.1504 C.2      120 DG      0.0000
    974 N2         0.9242     1.7073   363.2137 N.pl3    120 DG      0.0000
    975 N3        -1.3560     1.9513   363.3081 N.2      120 DG      0.0000
    976 C4        -2.5088     1.2592   363.2248 C.ar     120 DG      0.0000
    977 H5'       -7.4619     4.1988   366.2997 H        120 DG      0.0000
    978 H5''      -6.5215     2.6859   366.4069 H        120 DG      0.0000
    979 H4'       -5.3869     5.0184   365.7444 H        120 DG      0.0000
    980 H3'       -6.9875     4.7852   363.5308 H        120 DG      0.0000
    981 H2'       -6.0330     2.7947   362.6564 H        120 DG      0.0000
    982 H2''      -5.0121     4.0248   361.8403 H        120 DG      0.0000
    983 H1'       -3.2749     3.8282   363.4176 H        120 DG      0.0000
    984 H8        -5.7002     0.7972   363.2456 H        120 DG      0.0000
    985 H1         0.5480    -0.6740   362.8249 H        120 DG      0.0000
    986 H21        1.7451     1.1302   363.0987 H        120 DG      0.0000
    987 H22        1.0230     2.6992   363.3769 H        120 DG      0.0000
    988 P         -4.8822     6.2630   361.9108 P.3      119 DT      0.0000
    989 OP1       -4.9005     7.7163   361.5199 O.co2    119 DT      0.0000
    990 OP2       -5.9477     5.5046   361.2103 O.co2    119 DT      0.0000
    991 O5'       -3.3967     5.6771   361.7799 O.3      119 DT      0.0000
    992 C5'       -2.2964     6.6043   362.0476 C.3      119 DT      0.0000
    993 C4'       -1.0755     6.1289   361.2905 C.3      119 DT      0.0000
    994 O4'       -0.9578     4.7176   361.2632 O.3      119 DT      0.0000
    995 C3'       -1.0658     6.5725   359.8358 C.3      119 DT      0.0000
    996 O3'        0.2408     6.9372   359.3407 O.3      119 DT      0.0000
    997 C2'       -1.6261     5.3677   359.1130 C.3      119 DT      0.0000
    998 C1'       -0.9275     4.2649   359.8911 C.3      119 DT      0.0000
    999 N1        -1.7491     3.0538   359.7398 N.am     119 DT      0.0000
   1000 C2        -1.0791     1.8393   359.8465 C.2      119 DT      0.0000
   1001 O2         0.1322     1.8122   360.0363 O.2      119 DT      0.0000
   1002 N3        -1.8268     0.7014   359.7264 N.am     119 DT      0.0000
   1003 C4        -3.1714     0.7418   359.5088 C.2      119 DT      0.0000
   1004 O4        -3.7841    -0.3726   359.4112 O.2      119 DT      0.0000
   1005 C5        -3.8295     2.0003   359.4024 C.2      119 DT      0.0000
   1006 C7        -5.3127     2.0568   359.1735 C.3      119 DT      0.0000
   1007 C6        -3.0943     3.1085   359.5242 C.2      119 DT      0.0000
   1008 H5'       -2.5695     7.6054   361.7139 H        119 DT      0.0000
   1009 H5''      -2.0820     6.6200   363.1162 H        119 DT      0.0000
   1010 H4'       -0.1902     6.5366   361.7785 H        119 DT      0.0000
   1011 H3'       -1.7459     7.4152   359.7118 H        119 DT      0.0000
   1012 H2'       -2.7105     5.3061   359.2045 H        119 DT      0.0000
   1013 H2''      -1.3207     5.3621   358.0666 H        119 DT      0.0000
   1014 H1'        0.0925     4.1073   359.5404 H        119 DT      0.0000
   1015 H3        -1.3692    -0.1959   359.8011 H        119 DT      0.0000
   1016 H6        -3.5771     4.0717   359.4500 H        119 DT      0.0000
   1017 H71       -5.7091     1.0438   359.1048 H        119 DT      0.0000
   1018 H72       -5.7888     2.5774   360.0044 H        119 DT      0.0000
   1019 H73       -5.5170     2.5906   358.2453 H        119 DT      0.0000
   1020 P          0.0790     8.3941   358.5623 P.3      118 DG      0.0000
   1021 OP1        0.3811     9.5696   359.4336 O.co2    118 DG      0.0000
   1022 OP2       -1.3432     8.2689   358.1568 O.co2    118 DG      0.0000
   1023 O5'        1.2508     8.2781   357.4815 O.3      118 DG      0.0000
   1024 C5'        2.6182     8.5100   357.9050 C.3      118 DG      0.0000
   1025 C4'        3.3802     7.2690   357.4573 C.3      118 DG      0.0000
   1026 O4'        2.6098     6.1151   357.7280 O.3      118 DG      0.0000
   1027 C3'        3.7311     7.2472   355.9695 C.3      118 DG      0.0000
   1028 O3'        5.1232     7.0898   355.7610 O.3      118 DG      0.0000
   1029 C2'        2.8552     6.1492   355.3928 C.3      118 DG      0.0000
   1030 C1'        2.6354     5.2402   356.5789 C.3      118 DG      0.0000
   1031 N9         1.3678     4.5155   356.4554 N.ar     118 DG      0.0000
   1032 C8         0.1107     5.0263   356.2965 C.ar     118 DG      0.0000
   1033 N7        -0.8246     4.1114   356.2185 N.ar     118 DG      0.0000
   1034 C5        -0.1350     2.9103   356.3560 C.ar     118 DG      0.0000
   1035 C6        -0.5761     1.5607   356.3655 C.2      118 DG      0.0000
   1036 O6        -1.7307     1.1581   356.2664 O.2      118 DG      0.0000
   1037 N1         0.4203     0.6382   356.5144 N.am     118 DG      0.0000
   1038 C2         1.7384     1.0022   356.6473 C.2      118 DG      0.0000
   1039 N2         2.6082     0.0008   356.7830 N.pl3    118 DG      0.0000
   1040 N3         2.2192     2.2496   356.6516 N.2      118 DG      0.0000
   1041 C4         1.2205     3.1526   356.5009 C.ar     118 DG      0.0000
   1042 H5'        3.0223     9.4019   357.4262 H        118 DG      0.0000
   1043 H5''       2.6651     8.6102   358.9893 H        118 DG      0.0000
   1044 H4'        4.3054     7.2075   358.0303 H        118 DG      0.0000
   1045 H3'        3.4240     8.1966   355.5309 H        118 DG      0.0000
   1046 H2'        1.9109     6.5519   355.0264 H        118 DG      0.0000
   1047 H2''       3.3796     5.6198   354.5973 H        118 DG      0.0000
   1048 H1'        3.4615     4.5345   356.6660 H        118 DG      0.0000
   1049 H8        -0.0933     6.0854   356.2404 H        118 DG      0.0000
   1050 H1         0.1803    -0.3428   356.5273 H        118 DG      0.0000
   1051 H21        2.2818    -0.9551   356.7839 H        118 DG      0.0000
   1052 H22        3.5935     0.1980   356.8847 H        118 DG      0.0000
   1053 P          6.0222     6.1210   354.8947 P.3      117 DA      0.0000
   1054 OP1        7.2834     5.7313   355.6761 O.co2    117 DA      0.0000
   1055 OP2        6.3775     6.8933   353.7020 O.co2    117 DA      0.0000
   1056 O5'        5.1695     4.7439   354.7199 O.3      117 DA      0.0000
   1057 C5'        5.3487     3.8429   355.8764 C.3      117 DA      0.0000
   1058 C4'        6.0027     2.5900   355.3486 C.3      117 DA      0.0000
   1059 O4'        5.0794     1.5544   355.1263 O.3      117 DA      0.0000
   1060 C3'        6.7046     2.8037   354.0081 C.3      117 DA      0.0000
   1061 O3'        7.9413     2.1356   353.9329 O.3      117 DA      0.0000
   1062 C2'        5.6286     2.4114   353.0115 C.3      117 DA      0.0000
   1063 C1'        4.6969     1.4799   353.7353 C.3      117 DA      0.0000
   1064 N9         3.2862     1.8382   353.5098 N.ar     117 DA      0.0000
   1065 C8         2.7282     3.0844   353.3235 C.ar     117 DA      0.0000
   1066 N7         1.4298     3.0726   353.1276 N.ar     117 DA      0.0000
   1067 C5         1.1074     1.7240   353.2144 C.ar     117 DA      0.0000
   1068 C6        -0.1313     1.0494   353.1088 C.ar     117 DA      0.0000
   1069 N6        -1.2846     1.6582   352.8963 N.pl3    117 DA      0.0000
   1070 N1        -0.0873    -0.3060   353.2325 N.ar     117 DA      0.0000
   1071 C2         1.0897    -0.9615   353.4570 C.ar     117 DA      0.0000
   1072 N3         2.2855    -0.3876   353.5729 N.ar     117 DA      0.0000
   1073 C4         2.2290     0.9594   353.4368 C.ar     117 DA      0.0000
   1074 H5'        5.9867     4.3136   356.6244 H        117 DA      0.0000
   1075 H5''       4.3798     3.6010   356.3130 H        117 DA      0.0000
   1076 H4'        6.7391     2.2490   356.0762 H        117 DA      0.0000
   1077 H3'        6.8930     3.8713   353.8949 H        117 DA      0.0000
   1078 H2'        6.0749     1.9068   352.1546 H        117 DA      0.0000
   1079 H2''       5.0866     3.2974   352.6810 H        117 DA      0.0000
   1080 H1'        4.8647     0.4643   353.3771 H        117 DA      0.0000
   1081 H8         3.3098     3.9944   353.3374 H        117 DA      0.0000
   1082 H2         1.0468    -2.0368   353.5483 H        117 DA      0.0000
   1083 H61       -2.1548     1.2539   353.2117 H        117 DA      0.0000
   1084 H62       -1.2962     2.5434   352.4101 H        117 DA      0.0000
   1085 P          8.6390     1.3567   352.7483 P.3      116 DA      0.0000
   1086 OP1        9.8782     0.5711   353.2682 O.co2    116 DA      0.0000
   1087 OP2        9.1009     2.4307   351.8146 O.co2    116 DA      0.0000
   1088 O5'        7.6264     0.2594   352.2456 O.3      116 DA      0.0000
   1089 C5'        7.7555    -1.1032   352.7014 C.3      116 DA      0.0000
   1090 C4'        6.6829    -1.9073   351.9995 C.3      116 DA      0.0000
   1091 O4'        5.4551    -1.2472   351.8787 O.3      116 DA      0.0000
   1092 C3'        7.0779    -2.3520   350.5920 C.3      116 DA      0.0000
   1093 O3'        7.2047    -3.7861   350.5605 O.3      116 DA      0.0000
   1094 C2'        6.0296    -1.6947   349.6924 C.3      116 DA      0.0000
   1095 C1'        4.8359    -1.5716   350.5902 C.3      116 DA      0.0000
   1096 N9         3.9050    -0.4886   350.2906 N.ar     116 DA      0.0000
   1097 C8         4.1599     0.8531   350.0958 C.ar     116 DA      0.0000
   1098 N7         3.0800     1.5737   349.8904 N.ar     116 DA      0.0000
   1099 C5         2.0457     0.6612   349.9650 C.ar     116 DA      0.0000
   1100 C6         0.6468     0.8078   349.8315 C.ar     116 DA      0.0000
   1101 N6         0.0437     1.9675   349.5883 N.pl3    116 DA      0.0000
   1102 N1        -0.0784    -0.3471   349.9803 N.ar     116 DA      0.0000
   1103 C2         0.5042    -1.5349   350.2328 C.ar     116 DA      0.0000
   1104 N3         1.8161    -1.7489   350.3717 N.ar     116 DA      0.0000
   1105 C4         2.5279    -0.6093   350.2245 C.ar     116 DA      0.0000
   1106 H5'        8.7415    -1.4914   352.4463 H        116 DA      0.0000
   1107 H5''       7.6068    -1.1490   353.7802 H        116 DA      0.0000
   1108 H4'        6.5121    -2.8076   352.5896 H        116 DA      0.0000
   1109 H3'        8.0498    -1.9181   350.3570 H        116 DA      0.0000
   1110 H2'        6.3654    -0.7150   349.3525 H        116 DA      0.0000
   1111 H2''       5.8018    -2.3361   348.8411 H        116 DA      0.0000
   1112 H1'        4.3063    -2.5224   350.6513 H        116 DA      0.0000
   1113 H8         5.1549     1.2727   350.1108 H        116 DA      0.0000
   1114 H2        -0.1468    -2.3909   350.3319 H        116 DA      0.0000
   1115 H61       -0.9211     2.0221   349.8823 H        116 DA      0.0000
   1116 H62        0.5169     2.7395   349.1410 H        116 DA      0.0000
   1117 P          7.6034    -4.5037   349.1756 P.3      115 DT      0.0000
   1118 OP1        8.0367    -5.9362   349.2337 O.co2    115 DT      0.0000
   1119 OP2        8.6290    -3.5443   348.6629 O.co2    115 DT      0.0000
   1120 O5'        6.0924    -4.5009   348.4724 O.3      115 DT      0.0000
   1121 C5'        5.1003    -4.8498   349.4847 C.3      115 DT      0.0000
   1122 C4'        3.8778    -5.3741   348.8018 C.3      115 DT      0.0000
   1123 O4'        2.8828    -4.4111   348.6214 O.3      115 DT      0.0000
   1124 C3'        4.1444    -5.9977   347.4405 C.3      115 DT      0.0000
   1125 O3'        3.3218    -7.1401   347.1732 O.3      115 DT      0.0000
   1126 C2'        3.8786    -4.7790   346.5472 C.3      115 DT      0.0000
   1127 C1'        2.6375    -4.1948   347.1872 C.3      115 DT      0.0000
   1128 N1         2.5510    -2.7403   346.9572 N.am     115 DT      0.0000
   1129 C2         1.2888    -2.1864   346.8356 C.2      115 DT      0.0000
   1130 O2         0.2781    -2.8901   346.8724 O.2      115 DT      0.0000
   1131 N3         1.1956    -0.8314   346.6682 N.am     115 DT      0.0000
   1132 C4         2.2972    -0.0353   346.6197 C.2      115 DT      0.0000
   1133 O4         2.1183     1.2054   346.4342 O.2      115 DT      0.0000
   1134 C5         3.5850    -0.6223   346.7681 C.2      115 DT      0.0000
   1135 C7         4.8304     0.2303   346.7160 C.3      115 DT      0.0000
   1136 C6         3.6588    -1.9462   346.9411 C.2      115 DT      0.0000
   1137 H5'        5.5062    -5.6147   350.1468 H        115 DT      0.0000
   1138 H5''       4.8431    -3.9635   350.0648 H        115 DT      0.0000
   1139 H4'        3.4610    -6.1542   349.4388 H        115 DT      0.0000
   1140 H3'        5.1947    -6.2801   347.3685 H        115 DT      0.0000
   1141 H2'        4.7103    -4.0751   346.5778 H        115 DT      0.0000
   1142 H2''       3.6741    -5.0895   345.5226 H        115 DT      0.0000
   1143 H1'        1.7354    -4.7075   346.8533 H        115 DT      0.0000
   1144 H3         0.2820    -0.4103   346.5781 H        115 DT      0.0000
   1145 H6         4.6292    -2.4017   347.0725 H        115 DT      0.0000
   1146 H71        5.2508     0.1993   345.7108 H        115 DT      0.0000
   1147 H72        5.5622    -0.1521   347.4276 H        115 DT      0.0000
   1148 H73        4.5774     1.2591   346.9725 H        115 DT      0.0000
   1149 P          3.4831    -7.7947   345.6833 P.3      114 DT      0.0000
   1150 OP1        4.0874    -9.1923   345.8313 O.co2    114 DT      0.0000
   1151 OP2        4.4723    -6.8847   345.0135 O.co2    114 DT      0.0000
   1152 O5'        2.0773    -7.8296   345.0313 O.3      114 DT      0.0000
   1153 C5'        0.8704    -7.9594   345.7827 C.3      114 DT      0.0000
   1154 C4'       -0.2240    -7.2680   345.0347 C.3      114 DT      0.0000
   1155 O4'       -0.2131    -5.8671   344.9777 O.3      114 DT      0.0000
   1156 C3'       -0.4620    -7.6902   343.5686 C.3      114 DT      0.0000
   1157 O3'       -1.8831    -7.5604   343.4649 O.3      114 DT      0.0000
   1158 C2'        0.2751    -6.5820   342.8049 C.3      114 DT      0.0000
   1159 C1'       -0.2933    -5.4114   343.5806 C.3      114 DT      0.0000
   1160 N1         0.4498    -4.1525   343.4744 N.am     114 DT      0.0000
   1161 C2        -0.3338    -2.9907   343.4738 C.2      114 DT      0.0000
   1162 O2        -1.5643    -3.0532   343.5169 O.2      114 DT      0.0000
   1163 N3         0.3260    -1.7967   343.4204 N.am     114 DT      0.0000
   1164 C4         1.6850    -1.7066   343.3606 C.2      114 DT      0.0000
   1165 O4         2.2029    -0.5511   343.2982 O.2      114 DT      0.0000
   1166 C5         2.4558    -2.9010   343.3689 C.2      114 DT      0.0000
   1167 C7         3.9665    -2.8156   343.3074 C.3      114 DT      0.0000
   1168 C6         1.8061    -4.0667   343.4353 C.2      114 DT      0.0000
   1169 H5'        0.6239    -9.0141   345.9049 H        114 DT      0.0000
   1170 H5''       0.9957    -7.4961   346.7613 H        114 DT      0.0000
   1171 H4'       -1.1420    -7.5276   345.5619 H        114 DT      0.0000
   1172 H3'       -0.0986    -8.6920   343.3399 H        114 DT      0.0000
   1173 H2'        0.0048    -6.5529   341.7493 H        114 DT      0.0000
   1174 H2''       1.3543    -6.6593   342.9365 H        114 DT      0.0000
   1175 H1'       -1.3349    -5.2520   343.3016 H        114 DT      0.0000
   1176 H3        -0.2155    -0.9442   343.4253 H        114 DT      0.0000
   1177 H6         2.3829    -4.9795   343.4591 H        114 DT      0.0000
   1178 H71        4.2702    -1.7699   343.2586 H        114 DT      0.0000
   1179 H72        4.3240    -3.3393   342.4209 H        114 DT      0.0000
   1180 H73        4.3930    -3.2765   344.1984 H        114 DT      0.0000
   1181 P         -2.7853    -8.0920   342.3187 P.3      113 DC      0.0000
   1182 OP1       -3.9686    -8.8465   342.9278 O.co2    113 DC      0.0000
   1183 OP2       -1.9326    -9.0413   341.5368 O.co2    113 DC      0.0000
   1184 O5'       -3.2052    -6.7024   341.5793 O.3      113 DC      0.0000
   1185 C5'       -4.1855    -5.8891   342.3038 C.3      113 DC      0.0000
   1186 C4'       -5.0308    -5.2170   341.2532 C.3      113 DC      0.0000
   1187 O4'       -4.6229    -3.8912   341.0079 O.3      113 DC      0.0000
   1188 C3'       -5.0473    -5.9081   339.8888 C.3      113 DC      0.0000
   1189 O3'       -6.2833    -5.7978   339.1795 O.3      113 DC      0.0000
   1190 C2'       -3.8639    -5.2120   339.2027 C.3      113 DC      0.0000
   1191 C1'       -3.9575    -3.7887   339.7493 C.3      113 DC      0.0000
   1192 N1        -2.5807    -3.2536   339.8671 N.am     113 DC      0.0000
   1193 C2        -2.4394    -1.8667   339.8843 C.2      113 DC      0.0000
   1194 O2        -3.4264    -1.1215   339.8156 O.2      113 DC      0.0000
   1195 N3        -1.1690    -1.3679   339.9875 N.2      113 DC      0.0000
   1196 C4        -0.0791    -2.1761   340.0583 C.2      113 DC      0.0000
   1197 N4         1.1398    -1.6417   340.1602 N.pl3    113 DC      0.0000
   1198 C5        -0.2513    -3.5882   340.0332 C.2      113 DC      0.0000
   1199 C6        -1.4997    -4.0774   339.9396 C.2      113 DC      0.0000
   1200 H5'       -4.8050    -6.5214   342.9397 H        113 DC      0.0000
   1201 H5''      -3.6747    -5.1390   342.9077 H        113 DC      0.0000
   1202 H4'       -6.0561    -5.1860   341.6220 H        113 DC      0.0000
   1203 H3'       -4.8086    -6.9631   340.0230 H        113 DC      0.0000
   1204 H2'       -3.9735    -5.2257   338.1183 H        113 DC      0.0000
   1205 H2''      -2.9226    -5.6751   339.4986 H        113 DC      0.0000
   1206 H1'       -4.5410    -3.1674   339.0699 H        113 DC      0.0000
   1207 H5         0.5999    -4.2506   340.0879 H        113 DC      0.0000
   1208 H6        -1.6482    -5.1471   339.9215 H        113 DC      0.0000
   1209 H41        1.2511    -0.6380   340.1809 H        113 DC      0.0000
   1210 H42        1.9509    -2.2410   340.2166 H        113 DC      0.0000
   1211 P         -6.4482    -5.6321   337.5475 P.3      112 DA      0.0000
   1212 OP1       -7.8281    -6.1165   337.1580 O.co2    112 DA      0.0000
   1213 OP2       -5.3244    -6.4237   336.9775 O.co2    112 DA      0.0000
   1214 O5'       -6.4132    -4.0447   337.3820 O.3      112 DA      0.0000
   1215 C5'       -7.5889    -3.2746   337.8474 C.3      112 DA      0.0000
   1216 C4'       -7.5153    -2.0365   336.9701 C.3      112 DA      0.0000
   1217 O4'       -6.3000    -1.3251   337.2375 O.3      112 DA      0.0000
   1218 C3'       -7.4551    -2.3557   335.4657 C.3      112 DA      0.0000
   1219 O3'       -7.7639    -1.2179   334.6767 O.3      112 DA      0.0000
   1220 C2'       -5.9435    -2.5813   335.2783 C.3      112 DA      0.0000
   1221 C1'       -5.5228    -1.2905   336.0329 C.3      112 DA      0.0000
   1222 N9        -4.0755    -1.4079   336.1783 N.ar     112 DA      0.0000
   1223 C8        -3.3523    -2.5774   336.2512 C.ar     112 DA      0.0000
   1224 N7        -2.0623    -2.3843   336.3658 N.ar     112 DA      0.0000
   1225 C5        -1.9370    -0.9835   336.3595 C.ar     112 DA      0.0000
   1226 C6        -0.7892    -0.1501   336.4594 C.ar     112 DA      0.0000
   1227 N6         0.4578    -0.6141   336.5822 N.pl3    112 DA      0.0000
   1228 N1        -1.0582     1.1850   336.4242 N.ar     112 DA      0.0000
   1229 C2        -2.3236     1.6564   336.3054 C.ar     112 DA      0.0000
   1230 N3        -3.4434     0.9333   336.2139 N.ar     112 DA      0.0000
   1231 C4        -3.1655    -0.3819   336.2414 C.ar     112 DA      0.0000
   1232 H5'       -8.5150    -3.8246   337.6807 H        112 DA      0.0000
   1233 H5''      -7.4830    -3.0083   338.8991 H        112 DA      0.0000
   1234 H4'       -8.3701    -1.3915   337.1741 H        112 DA      0.0000
   1235 H3'       -8.0484    -3.2294   335.1961 H        112 DA      0.0000
   1236 H2'       -5.5861    -3.4914   335.7599 H        112 DA      0.0000
   1237 H2''      -5.6583    -2.5438   334.2269 H        112 DA      0.0000
   1238 H1'       -5.7745    -0.4082   335.4445 H        112 DA      0.0000
   1239 H8        -3.8046    -3.5576   336.2172 H        112 DA      0.0000
   1240 H2        -2.4388     2.7300   336.2822 H        112 DA      0.0000
   1241 H61        0.6260    -1.6096   336.6070 H        112 DA      0.0000
   1242 H62        1.2321     0.0308   336.6504 H        112 DA      0.0000
   1243 P         -8.8657    -1.2959   333.5358 P.3      111 DC      0.0000
   1244 OP1      -10.1518    -1.0800   334.3160 O.co2    111 DC      0.0000
   1245 OP2       -8.8398    -2.5709   332.8102 O.co2    111 DC      0.0000
   1246 O5'       -8.3786    -0.0651   332.5599 O.3      111 DC      0.0000
   1247 C5'       -8.1738     1.2377   333.2289 C.3      111 DC      0.0000
   1248 C4'       -6.9995     1.9262   332.5849 C.3      111 DC      0.0000
   1249 O4'       -5.7567     1.6568   333.2220 O.3      111 DC      0.0000
   1250 C3'       -6.8163     1.5405   331.1071 C.3      111 DC      0.0000
   1251 O3'       -6.3033     2.5898   330.2958 O.3      111 DC      0.0000
   1252 C2'       -5.7181     0.4395   331.2727 C.3      111 DC      0.0000
   1253 C1'       -4.8149     1.3653   332.1683 C.3      111 DC      0.0000
   1254 N1        -3.5873     0.6521   332.4062 N.am     111 DC      0.0000
   1255 C2        -2.4517     1.3797   332.7233 C.2      111 DC      0.0000
   1256 O2        -2.3089     2.5996   332.8638 O.2      111 DC      0.0000
   1257 N3        -1.2852     0.6943   332.9216 N.2      111 DC      0.0000
   1258 C4        -1.2160    -0.6668   332.8056 C.2      111 DC      0.0000
   1259 N4        -0.0510    -1.2973   333.0216 N.pl3    111 DC      0.0000
   1260 C5        -2.3895    -1.3996   332.4759 C.2      111 DC      0.0000
   1261 C6        -3.5181    -0.7068   332.2842 C.2      111 DC      0.0000
   1262 H5'       -9.0669     1.8526   333.1174 H        111 DC      0.0000
   1263 H5''      -7.9691     1.0776   334.2875 H        111 DC      0.0000
   1264 H4'       -7.1741     3.0011   332.6316 H        111 DC      0.0000
   1265 H3'       -7.7335     1.1267   330.6881 H        111 DC      0.0000
   1266 H2'       -6.0724    -0.4522   331.7898 H        111 DC      0.0000
   1267 H2''      -5.2384     0.1969   330.3245 H        111 DC      0.0000
   1268 H1'       -4.5943     2.2832   331.6234 H        111 DC      0.0000
   1269 H5        -2.3703    -2.4756   332.3838 H        111 DC      0.0000
   1270 H6        -4.4156    -1.2468   332.0210 H        111 DC      0.0000
   1271 H41        0.7737    -0.7661   333.2622 H        111 DC      0.0000
   1272 H42        0.0010    -2.3029   332.9437 H        111 DC      0.0000
   1273 P          9.8354     1.9096   366.8949 P.3      121 DG      0.0000
   1274 OP1       11.2512     1.4658   366.8934 O.co2    121 DG      0.0000
   1275 OP2        9.1073     1.0648   367.9506 O.co2    121 DG      0.0000
   1276 O5'        9.5710     3.4685   367.0733 O.3      121 DG      0.0000
   1277 C5'        9.2322     4.4526   366.0733 C.3      121 DG      0.0000
   1278 C4'        8.0383     5.2397   366.5721 C.3      121 DG      0.0000
   1279 O4'        6.8160     4.6725   366.1530 O.3      121 DG      0.0000
   1280 C3'        7.9173     5.4742   368.0643 C.3      121 DG      0.0000
   1281 O3'        7.7780     6.8865   368.3763 O.3      121 DG      0.0000
   1282 C2'        6.7191     4.6451   368.4862 C.3      121 DG      0.0000
   1283 C1'        5.8851     4.5635   367.2306 C.3      121 DG      0.0000
   1284 N9         5.1387     3.2926   367.2015 N.ar     121 DG      0.0000
   1285 C8         5.5863     2.0129   367.4304 C.ar     121 DG      0.0000
   1286 N7         4.6519     1.0935   367.3407 N.ar     121 DG      0.0000
   1287 C5         3.5051     1.8167   367.0237 C.ar     121 DG      0.0000
   1288 C6         2.1663     1.4120   366.7978 C.2      121 DG      0.0000
   1289 O6         1.7006     0.2722   366.8190 O.2      121 DG      0.0000
   1290 N1         1.2912     2.4251   366.5162 N.am     121 DG      0.0000
   1291 C2         1.6464     3.6685   366.4556 C.2      121 DG      0.0000
   1292 N2         0.6465     4.4041   366.1588 N.pl3    121 DG      0.0000
   1293 N3         2.9369     4.1655   366.6643 N.2      121 DG      0.0000
   1294 C4         3.7889     3.1668   366.9369 C.ar     121 DG      0.0000
   1295 H5'       10.0765     5.1236   365.9146 H        121 DG      0.0000
   1296 H5''       8.9785     3.9538   365.1380 H        121 DG      0.0000
   1297 H4'        8.0993     6.2238   366.1074 H        121 DG      0.0000
   1298 H3'        8.8087     5.0874   368.5583 H        121 DG      0.0000
   1299 H2'        7.0284     3.6525   368.8132 H        121 DG      0.0000
   1300 H2''       6.1662     5.1511   369.2777 H        121 DG      0.0000
   1301 H1'        5.1870     5.3999   367.1986 H        121 DG      0.0000
   1302 H8         6.6157     1.7835   367.6635 H        121 DG      0.0000
   1303 H1         0.3230     2.1921   366.3479 H        121 DG      0.0000
   1304 H21       -0.2620     3.9871   366.0145 H        121 DG      0.0000
   1305 H22        0.7636     5.4032   366.0684 H        121 DG      0.0000
   1306 P          7.3517     7.4062   369.8049 P.3      122 DT      0.0000
   1307 OP1        8.0769     8.6239   370.3165 O.co2    122 DT      0.0000
   1308 OP2        7.8142     6.2607   370.7235 O.co2    122 DT      0.0000
   1309 O5'        5.8040     7.4875   369.8334 O.3      122 DT      0.0000
   1310 C5'        5.0711     8.7351   369.6894 C.3      122 DT      0.0000
   1311 C4'        3.6130     8.3301   369.7470 C.3      122 DT      0.0000
   1312 O4'        3.4295     6.9587   369.4718 O.3      122 DT      0.0000
   1313 C3'        2.9060     8.5545   371.0597 C.3      122 DT      0.0000
   1314 O3'        1.8834     9.5437   370.8715 O.3      122 DT      0.0000
   1315 C2'        2.3134     7.2012   371.4519 C.3      122 DT      0.0000
   1316 C1'        2.1785     6.5518   370.0992 C.3      122 DT      0.0000
   1317 N1         2.1930     5.0920   370.1958 N.am     122 DT      0.0000
   1318 C2         1.0087     4.4355   369.9979 C.2      122 DT      0.0000
   1319 O2        -0.0419     5.0269   369.7597 O.2      122 DT      0.0000
   1320 N3         1.0321     3.0691   370.0789 N.am     122 DT      0.0000
   1321 C4         2.1594     2.3673   370.3348 C.2      122 DT      0.0000
   1322 O4         2.0249     1.1165   370.3801 O.2      122 DT      0.0000
   1323 C5         3.3900     3.0715   370.5345 C.2      122 DT      0.0000
   1324 C7         4.6586     2.3333   370.8144 C.3      122 DT      0.0000
   1325 C6         3.3577     4.4078   370.4531 C.2      122 DT      0.0000
   1326 H5'        5.3127     9.4193   370.5029 H        122 DT      0.0000
   1327 H5''       5.2970     9.1968   368.7283 H        122 DT      0.0000
   1328 H4'        3.0809     8.8961   368.9824 H        122 DT      0.0000
   1329 H3'        3.6160     8.8873   371.8168 H        122 DT      0.0000
   1330 H2'        2.9868     6.6410   372.1007 H        122 DT      0.0000
   1331 H2''       1.3376     7.3264   371.9211 H        122 DT      0.0000
   1332 H1'        1.3086     6.9178   369.5538 H        122 DT      0.0000
   1333 H3         0.1692     2.5627   369.9414 H        122 DT      0.0000
   1334 H6         4.2727     4.9641   370.5934 H        122 DT      0.0000
   1335 H71        5.2640     2.2939   369.9089 H        122 DT      0.0000
   1336 H72        4.4246     1.3195   371.1392 H        122 DT      0.0000
   1337 H73        5.2126     2.8477   371.5997 H        122 DT      0.0000
   1338 P          1.7112    10.5326   372.1514 P.3      123 DG      0.0000
   1339 OP1        1.4039    11.8422   371.4364 O.co2    123 DG      0.0000
   1340 OP2        2.9522    10.5476   372.9050 O.co2    123 DG      0.0000
   1341 O5'        0.3955     9.7830   372.7610 O.3      123 DG      0.0000
   1342 C5'       -0.5655     9.5179   371.6704 C.3      123 DG      0.0000
   1343 C4'       -1.5878     8.5507   372.1904 C.3      123 DG      0.0000
   1344 O4'       -1.3098     7.1878   372.0098 O.3      123 DG      0.0000
   1345 C3'       -1.8774     8.7493   373.6984 C.3      123 DG      0.0000
   1346 O3'       -3.3055     8.9292   373.8573 O.3      123 DG      0.0000
   1347 C2'       -1.2768     7.5225   374.3510 C.3      123 DG      0.0000
   1348 C1'       -1.4750     6.4669   373.2695 C.3      123 DG      0.0000
   1349 N9        -0.5427     5.3468   373.4390 N.ar     123 DG      0.0000
   1350 C8         0.7825     5.3801   373.7752 C.ar     123 DG      0.0000
   1351 N7         1.3561     4.2001   373.8609 N.ar     123 DG      0.0000
   1352 C5         0.3225     3.3263   373.5309 C.ar     123 DG      0.0000
   1353 C6         0.2985     1.9054   373.4366 C.2      123 DG      0.0000
   1354 O6         1.2293     1.1090   373.6289 O.2      123 DG      0.0000
   1355 N1        -0.9278     1.3784   373.1015 N.am     123 DG      0.0000
   1356 C2        -2.0144     2.1677   372.8778 C.2      123 DG      0.0000
   1357 N2        -3.1236     1.4831   372.5689 N.pl3    123 DG      0.0000
   1358 N3        -2.0417     3.4966   372.9488 N.2      123 DG      0.0000
   1359 C4        -0.8447     4.0135   373.2754 C.ar     123 DG      0.0000
   1360 H5'       -1.0515    10.4461   371.3699 H        123 DG      0.0000
   1361 H5''      -0.0450     9.0814   370.8180 H        123 DG      0.0000
   1362 H4'       -2.5174     8.7570   371.6598 H        123 DG      0.0000
   1363 H3'       -1.3581     9.6396   374.0532 H        123 DG      0.0000
   1364 H2'       -0.2199     7.6687   374.5740 H        123 DG      0.0000
   1365 H2''      -1.8277     7.2575   375.2534 H        123 DG      0.0000
   1366 H1'       -2.4956     6.0887   373.3284 H        123 DG      0.0000
   1367 H8         1.3155     6.3020   373.9558 H        123 DG      0.0000
   1368 H1        -1.0246     0.3764   373.0192 H        123 DG      0.0000
   1369 H21       -3.0971     0.4747   372.5187 H        123 DG      0.0000
   1370 H22       -3.9864     1.9754   372.3863 H        123 DG      0.0000
   1371 P         -3.9379     9.2701   375.2457 P.3      124 DA      0.0000
   1372 OP1       -4.0452    10.7176   375.6011 O.co2    124 DA      0.0000
   1373 OP2       -2.8063     8.6447   376.1414 O.co2    124 DA      0.0000
   1374 O5'       -5.1874     8.3259   375.4948 O.3      124 DA      0.0000
   1375 C5'       -5.9459     7.6737   374.4658 C.3      124 DA      0.0000
   1376 C4'       -6.1143     6.2393   374.9401 C.3      124 DA      0.0000
   1377 O4'       -4.8889     5.5445   374.8497 O.3      124 DA      0.0000
   1378 C3'       -6.6251     6.0549   376.3691 C.3      124 DA      0.0000
   1379 O3'       -7.6893     5.0823   376.4214 O.3      124 DA      0.0000
   1380 C2'       -5.3594     5.5979   377.1046 C.3      124 DA      0.0000
   1381 C1'       -4.7618     4.7059   376.0270 C.3      124 DA      0.0000
   1382 N9        -3.3541     4.3649   376.2554 N.ar     124 DA      0.0000
   1383 C8        -2.2775     5.1776   376.4712 C.ar     124 DA      0.0000
   1384 N7        -1.1456     4.5300   376.6361 N.ar     124 DA      0.0000
   1385 C5        -1.5017     3.1970   376.4959 C.ar     124 DA      0.0000
   1386 C6        -0.7334     2.0133   376.5439 C.ar     124 DA      0.0000
   1387 N6         0.5830     1.9760   376.7637 N.pl3    124 DA      0.0000
   1388 N1        -1.4342     0.8559   376.3541 N.ar     124 DA      0.0000
   1389 C2        -2.7695     0.8710   376.1363 C.ar     124 DA      0.0000
   1390 N3        -3.5564     1.9447   376.0781 N.ar     124 DA      0.0000
   1391 C4        -2.8500     3.0745   376.2649 C.ar     124 DA      0.0000
   1392 H5'       -5.4072     7.7017   373.5186 H        124 DA      0.0000
   1393 H5''      -6.9202     8.1504   374.3580 H        124 DA      0.0000
   1394 H4'       -6.8218     5.7504   374.2703 H        124 DA      0.0000
   1395 H3'       -6.9684     7.0083   376.7706 H        124 DA      0.0000
   1396 H2'       -4.7056     6.4349   377.3501 H        124 DA      0.0000
   1397 H2''      -5.6101     5.0221   377.9955 H        124 DA      0.0000
   1398 H1'       -5.3570     3.8000   375.9125 H        124 DA      0.0000
   1399 H8        -2.3499     6.2547   376.5033 H        124 DA      0.0000
   1400 H2        -3.2474    -0.0872   375.9950 H        124 DA      0.0000
   1401 H61        1.2086     2.7630   376.6663 H        124 DA      0.0000
   1402 H62        1.0731     1.1098   376.5922 H        124 DA      0.0000
   1403 P         -8.8695     5.1314   377.5629 P.3      125 DA      0.0000
   1404 OP1      -10.2100     5.3148   376.8958 O.co2    125 DA      0.0000
   1405 OP2       -8.4152     6.2650   378.3938 O.co2    125 DA      0.0000
   1406 O5'       -8.8975     3.6272   378.0937 O.3      125 DA      0.0000
   1407 C5'       -9.2086     2.5052   377.2694 C.3      125 DA      0.0000
   1408 C4'       -8.4356     1.3070   377.7917 C.3      125 DA      0.0000
   1409 O4'       -7.0599     1.5635   377.8199 O.3      125 DA      0.0000
   1410 C3'       -8.8192     0.7683   379.1590 C.3      125 DA      0.0000
   1411 O3'       -9.3279    -0.5632   379.0812 O.3      125 DA      0.0000
   1412 C2'       -7.5389     0.9296   379.9877 C.3      125 DA      0.0000
   1413 C1'       -6.4431     0.9426   378.9939 C.3      125 DA      0.0000
   1414 N9        -5.2016     1.6910   379.2620 N.ar     125 DA      0.0000
   1415 C8        -4.9931     3.0440   379.3772 C.ar     125 DA      0.0000
   1416 N7        -3.7365     3.3809   379.5465 N.ar     125 DA      0.0000
   1417 C5        -3.0596     2.1661   379.5095 C.ar     125 DA      0.0000
   1418 C6        -1.6769     1.8475   379.6299 C.ar     125 DA      0.0000
   1419 N6        -0.6985     2.7235   379.8216 N.pl3    125 DA      0.0000
   1420 N1        -1.3649     0.5146   379.5317 N.ar     125 DA      0.0000
   1421 C2        -2.3446    -0.4164   379.3427 C.ar     125 DA      0.0000
   1422 N3        -3.6486    -0.1884   379.2348 N.ar     125 DA      0.0000
   1423 C4        -3.9398     1.1247   379.3267 C.ar     125 DA      0.0000
   1424 H5'       -8.9179     2.7118   376.2393 H        125 DA      0.0000
   1425 H5''     -10.2783     2.3008   377.3153 H        125 DA      0.0000
   1426 H4'       -8.5905     0.4970   377.0790 H        125 DA      0.0000
   1427 H3'       -9.5909     1.4113   379.5822 H        125 DA      0.0000
   1428 H2'       -7.5598     1.8644   380.5480 H        125 DA      0.0000
   1429 H2''      -7.4211     0.0856   380.6673 H        125 DA      0.0000
   1430 H1'       -6.1833    -0.0870   378.7479 H        125 DA      0.0000
   1431 H8        -5.7938     3.7673   379.3323 H        125 DA      0.0000
   1432 H2        -2.0264    -1.4461   379.2735 H        125 DA      0.0000
   1433 H61       -0.8729     3.6634   380.1477 H        125 DA      0.0000
   1434 H62        0.2529     2.4407   379.6348 H        125 DA      0.0000
   1435 P        -10.4838    -1.1908   380.0374 P.3      126 DT      0.0000
   1436 OP1      -11.4723    -2.0342   379.2401 O.co2    126 DT      0.0000
   1437 OP2      -11.0843    -0.1600   380.8580 O.co2    126 DT      0.0000
   1438 O5'       -9.6453    -2.3483   380.8511 O.3      126 DT      0.0000
   1439 C5'       -8.7128    -3.0279   379.9060 C.3      126 DT      0.0000
   1440 C4'       -7.4380    -3.1927   380.6937 C.3      126 DT      0.0000
   1441 O4'       -6.7311    -1.9879   380.8857 O.3      126 DT      0.0000
   1442 C3'       -7.6955    -3.7387   382.1103 C.3      126 DT      0.0000
   1443 O3'       -7.4724    -5.1367   382.1120 O.3      126 DT      0.0000
   1444 C2'       -6.7554    -2.9376   383.0076 C.3      126 DT      0.0000
   1445 C1'       -5.8386    -2.2980   382.0429 C.3      126 DT      0.0000
   1446 N1        -5.1522    -1.0618   382.3827 N.am     126 DT      0.0000
   1447 C2        -3.7693    -1.1283   382.5206 C.2      126 DT      0.0000
   1448 O2        -3.2000    -2.2085   382.4326 O.2      126 DT      0.0000
   1449 N3        -3.0912     0.0256   382.7746 N.am     126 DT      0.0000
   1450 C4        -3.7129     1.2354   382.8948 C.2      126 DT      0.0000
   1451 O4        -3.0110     2.2655   383.1500 O.2      126 DT      0.0000
   1452 C5        -5.1357     1.2829   382.7232 C.2      126 DT      0.0000
   1453 C7        -5.8669     2.5938   382.8107 C.3      126 DT      0.0000
   1454 C6        -5.7994     0.1424   382.4674 C.2      126 DT      0.0000
   1455 H5'       -9.1082    -3.9979   379.6044 H        126 DT      0.0000
   1456 H5''      -8.5385    -2.4018   379.0310 H        126 DT      0.0000
   1457 H4'       -6.7917    -3.8931   380.1646 H        126 DT      0.0000
   1458 H3'       -8.7281    -3.5361   382.3946 H        126 DT      0.0000
   1459 H2'       -7.3039    -2.1903   383.5810 H        126 DT      0.0000
   1460 H2''      -6.2054    -3.6021   383.6740 H        126 DT      0.0000
   1461 H1'       -5.0982    -3.0323   381.7256 H        126 DT      0.0000
   1462 H3        -2.0873    -0.0154   382.8783 H        126 DT      0.0000
   1463 H6        -6.8695     0.1763   382.3253 H        126 DT      0.0000
   1464 H71       -5.1569     3.3930   383.0238 H        126 DT      0.0000
   1465 H72       -6.3663     2.7949   381.8629 H        126 DT      0.0000
   1466 H73       -6.6080     2.5440   383.6085 H        126 DT      0.0000
   1467 P         -7.7939    -6.1767   383.2186 P.3      127 DT      0.0000
   1468 OP1       -7.9169    -7.5961   382.6065 O.co2    127 DT      0.0000
   1469 OP2       -9.0650    -5.7356   383.8486 O.co2    127 DT      0.0000
   1470 O5'       -6.4568    -6.2505   384.1009 O.3      127 DT      0.0000
   1471 C5'       -5.3578    -6.8801   383.3892 C.3      127 DT      0.0000
   1472 C4'       -4.0812    -6.5182   384.0653 C.3      127 DT      0.0000
   1473 O4'       -3.7936    -5.1256   384.0420 O.3      127 DT      0.0000
   1474 C3'       -3.9917    -6.9639   385.5319 C.3      127 DT      0.0000
   1475 O3'       -2.7191    -7.5232   385.7960 O.3      127 DT      0.0000
   1476 C2'       -4.1317    -5.6103   386.2683 C.3      127 DT      0.0000
   1477 C1'       -3.2263    -4.7982   385.3647 C.3      127 DT      0.0000
   1478 N1        -3.3258    -3.3813   385.6624 N.am     127 DT      0.0000
   1479 C2        -2.1603    -2.6341   385.7172 C.2      127 DT      0.0000
   1480 O2        -1.0814    -3.1978   385.5288 O.2      127 DT      0.0000
   1481 N3        -2.2615    -1.2976   385.9831 N.am     127 DT      0.0000
   1482 C4        -3.4605    -0.6876   386.1902 C.2      127 DT      0.0000
   1483 O4        -3.4774     0.5566   386.4135 O.2      127 DT      0.0000
   1484 C5        -4.6533    -1.4654   386.1251 C.2      127 DT      0.0000
   1485 C7        -6.0128    -0.8650   386.3350 C.3      127 DT      0.0000
   1486 C6        -4.5356    -2.7766   385.8640 C.2      127 DT      0.0000
   1487 H5'       -5.4852    -7.9626   383.4016 H        127 DT      0.0000
   1488 H5''      -5.3389    -6.5260   382.3584 H        127 DT      0.0000
   1489 H4'       -3.2781    -7.0215   383.5268 H        127 DT      0.0000
   1490 H3'       -4.7964    -7.6507   385.7944 H        127 DT      0.0000
   1491 H2'       -5.1574    -5.2417   386.2670 H        127 DT      0.0000
   1492 H2''      -3.7326    -5.6673   387.2810 H        127 DT      0.0000
   1493 H1'       -2.1940    -5.1397   385.4403 H        127 DT      0.0000
   1494 H3        -1.4180    -0.7437   386.0276 H        127 DT      0.0000
   1495 H6        -5.4314    -3.3776   385.8109 H        127 DT      0.0000
   1496 H71       -5.9126     0.2020   386.5339 H        127 DT      0.0000
   1497 H72       -6.6168    -1.0122   385.4397 H        127 DT      0.0000
   1498 H73       -6.4966    -1.3488   387.1834 H        127 DT      0.0000
   1499 P         -2.1725    -8.8628   386.4039 P.3      128 DC      0.0000
   1500 OP1       -1.5511    -9.7423   385.3360 O.co2    128 DC      0.0000
   1501 OP2       -3.3079    -9.4494   387.1389 O.co2    128 DC      0.0000
   1502 O5'       -0.9346    -8.1955   387.2300 O.3      128 DC      0.0000
   1503 C5'       -0.2250    -7.4037   386.2077 C.3      128 DC      0.0000
   1504 C4'        0.8991    -6.6910   386.9042 C.3      128 DC      0.0000
   1505 O4'        0.6129    -5.3493   387.1511 O.3      128 DC      0.0000
   1506 C3'        1.3780    -7.3445   388.1957 C.3      128 DC      0.0000
   1507 O3'        2.7675    -7.6336   388.1160 O.3      128 DC      0.0000
   1508 C2'        0.9073    -6.3345   389.2444 C.3      128 DC      0.0000
   1509 C1'        0.9278    -5.0317   388.5480 C.3      128 DC      0.0000
   1510 N1        -0.1372    -4.0801   388.8801 N.am     128 DC      0.0000
   1511 C2         0.2724    -2.7733   389.1359 C.2      128 DC      0.0000
   1512 O2         1.4678    -2.4637   389.1404 O.2      128 DC      0.0000
   1513 N3        -0.7031    -1.8468   389.4098 N.2      128 DC      0.0000
   1514 C4        -2.0255    -2.1808   389.3998 C.2      128 DC      0.0000
   1515 N4        -2.8934    -1.2139   389.6767 N.pl3    128 DC      0.0000
   1516 C5        -2.4268    -3.5060   389.1218 C.2      128 DC      0.0000
   1517 C6        -1.4566    -4.4049   388.8570 C.2      128 DC      0.0000
   1518 H5'        0.1715    -8.0613   385.4340 H        128 DC      0.0000
   1519 H5''      -0.9054    -6.6772   385.7635 H        128 DC      0.0000
   1520 H4'        1.7460    -6.7052   386.2182 H        128 DC      0.0000
   1521 H3'        0.8336    -8.2778   388.3389 H        128 DC      0.0000
   1522 H2'       -0.1011    -6.5735   389.5823 H        128 DC      0.0000
   1523 H2''       1.5950    -6.3208   390.0900 H        128 DC      0.0000
   1524 H1'        1.9082    -4.5624   388.6290 H        128 DC      0.0000
   1525 H5        -3.4692    -3.7885   389.1212 H        128 DC      0.0000
   1526 H6        -1.7385    -5.4196   388.6180 H        128 DC      0.0000
   1527 H41       -2.5630    -0.2805   389.8759 H        128 DC      0.0000
   1528 H42       -3.8837    -1.4122   389.6880 H        128 DC      0.0000
   1529 P          3.5927    -8.6564   389.0680 P.3      129 DA      0.0000
   1530 OP1        4.7960    -9.1277   388.2743 O.co2    129 DA      0.0000
   1531 OP2        2.6938    -9.7764   389.4136 O.co2    129 DA      0.0000
   1532 O5'        4.0166    -7.7365   390.3650 O.3      129 DA      0.0000
   1533 C5'        4.7026    -6.4814   390.0698 C.3      129 DA      0.0000
   1534 C4'        4.9362    -5.7065   391.3251 C.3      129 DA      0.0000
   1535 O4'        4.0046    -4.6479   391.5672 O.3      129 DA      0.0000
   1536 C3'        4.8541    -6.5156   392.6303 C.3      129 DA      0.0000
   1537 O3'        5.5271    -5.7879   393.6602 O.3      129 DA      0.0000
   1538 C2'        3.3276    -6.4885   392.8449 C.3      129 DA      0.0000
   1539 C1'        3.1525    -4.9772   392.6616 C.3      129 DA      0.0000
   1540 N9         1.7358    -4.6676   392.5673 N.ar     129 DA      0.0000
   1541 C8         0.6501    -5.4908   392.4515 C.ar     129 DA      0.0000
   1542 N7        -0.5180    -4.8742   392.4329 N.ar     129 DA      0.0000
   1543 C5        -0.1704    -3.5351   392.5404 C.ar     129 DA      0.0000
   1544 C6        -0.9493    -2.3522   392.5750 C.ar     129 DA      0.0000
   1545 N6        -2.2670    -2.3202   392.4897 N.pl3    129 DA      0.0000
   1546 N1        -0.2591    -1.1814   392.7075 N.ar     129 DA      0.0000
   1547 C2         1.1080    -1.1680   392.7877 C.ar     129 DA      0.0000
   1548 N3         1.9057    -2.2329   392.7579 N.ar     129 DA      0.0000
   1549 C4         1.2037    -3.3861   392.6349 C.ar     129 DA      0.0000
   1550 H5'        5.6612    -6.6986   389.5987 H        129 DA      0.0000
   1551 H5''       4.0923    -5.8885   389.3885 H        129 DA      0.0000
   1552 H4'        5.9322    -5.2678   391.2662 H        129 DA      0.0000
   1553 H3'        5.2402    -7.5286   392.5167 H        129 DA      0.0000
   1554 H2'        2.7889    -7.0666   392.0941 H        129 DA      0.0000
   1555 H2''       3.0616    -6.8008   393.8548 H        129 DA      0.0000
   1556 H1'        3.5444    -4.4843   393.5513 H        129 DA      0.0000
   1557 H8         0.7408    -6.5646   392.3805 H        129 DA      0.0000
   1558 H2         1.5832    -0.2029   392.8842 H        129 DA      0.0000
   1559 H61       -2.9668    -1.6145   392.6697 H        129 DA      0.0000
   1560 H62       -2.6622    -3.1948   392.1750 H        129 DA      0.0000
   1561 P          7.1207    -5.8222   393.8007 P.3      130 DC      0.0000
   1562 OP1        7.8109    -6.2632   392.5556 O.co2    130 DC      0.0000
   1563 OP2        7.3180    -6.7756   394.9436 O.co2    130 DC      0.0000
   1564 O5'        7.4942    -4.3073   394.0839 O.3      130 DC      0.0000
   1565 C5'        7.6166    -3.3415   392.9962 C.3      130 DC      0.0000
   1566 C4'        7.2349    -2.0349   393.7011 C.3      130 DC      0.0000
   1567 O4'        5.8632    -2.1110   394.0131 O.3      130 DC      0.0000
   1568 C3'        7.9828    -1.8010   395.0110 C.3      130 DC      0.0000
   1569 O3'        8.6047    -0.4978   395.0789 O.3      130 DC      0.0000
   1570 C2'        6.9152    -2.0216   396.0932 C.3      130 DC      0.0000
   1571 C1'        5.6794    -1.5846   395.4171 C.3      130 DC      0.0000
   1572 N1         4.3778    -2.1456   395.7699 N.am     130 DC      0.0000
   1573 C2         3.3168    -1.2425   395.7430 C.2      130 DC      0.0000
   1574 O2         3.4720    -0.0455   395.5361 O.2      130 DC      0.0000
   1575 N3         2.0732    -1.7317   395.9961 N.2      130 DC      0.0000
   1576 C4         1.8420    -3.0463   396.2295 C.2      130 DC      0.0000
   1577 N4         0.5804    -3.4048   396.4604 N.pl3    130 DC      0.0000
   1578 C5         2.9313    -3.9604   396.2360 C.2      130 DC      0.0000
   1579 C6         4.1555    -3.4704   395.9866 C.2      130 DC      0.0000
   1580 H5'        8.6356    -3.3028   392.6113 H        130 DC      0.0000
   1581 H5''       6.9109    -3.5690   392.1971 H        130 DC      0.0000
   1582 H4'        7.4085    -1.1950   393.0284 H        130 DC      0.0000
   1583 H3'        8.7537    -2.5643   395.1169 H        130 DC      0.0000
   1584 H2'        6.8567    -3.0716   396.3802 H        130 DC      0.0000
   1585 H2''       7.1170    -1.3972   396.9635 H        130 DC      0.0000
   1586 H1'        5.6258    -0.4960   395.4038 H        130 DC      0.0000
   1587 H5         2.7789    -5.0110   396.4345 H        130 DC      0.0000
   1588 H6         4.9933    -4.1512   395.9569 H        130 DC      0.0000
   1589 H41       -0.1522    -2.7096   396.4494 H        130 DC      0.0000
   1590 H42        0.3562    -4.3719   396.6465 H        130 DC      0.0000
   1591 P         -8.2869     1.8368   398.0384 P.3      130 DG      0.0000
   1592 OP1       -9.7496     2.0925   398.2172 O.co2    130 DG      0.0000
   1593 OP2       -7.9891     0.8102   396.9536 O.co2    130 DG      0.0000
   1594 O5'       -7.5038     3.2697   397.8312 O.3      130 DG      0.0000
   1595 C5'       -6.6884     3.8029   398.9270 C.3      130 DG      0.0000
   1596 C4'       -5.4556     4.4427   398.2927 C.3      130 DG      0.0000
   1597 O4'       -4.3867     3.5413   398.1969 O.3      130 DG      0.0000
   1598 C3'       -5.6815     4.9914   396.8863 C.3      130 DG      0.0000
   1599 O3'       -5.0108     6.2447   396.6194 O.3      130 DG      0.0000
   1600 C2'       -5.1493     3.8635   395.9841 C.3      130 DG      0.0000
   1601 C1'       -3.9703     3.3730   396.8079 C.3      130 DG      0.0000
   1602 N9        -3.6862     1.9538   396.5346 N.ar     130 DG      0.0000
   1603 C8        -4.5863     0.9267   396.3779 C.ar     130 DG      0.0000
   1604 N7        -4.0322    -0.2362   396.1595 N.ar     130 DG      0.0000
   1605 C5        -2.6699     0.0383   396.1843 C.ar     130 DG      0.0000
   1606 C6        -1.5399    -0.8080   396.0278 C.2      130 DG      0.0000
   1607 O6        -1.5532    -2.0315   395.8310 O.2      130 DG      0.0000
   1608 N1        -0.3323    -0.1602   396.1148 N.am     130 DG      0.0000
   1609 C2        -0.2313     1.1735   396.3354 C.2      130 DG      0.0000
   1610 N2         1.0046     1.6613   396.3988 N.pl3    130 DG      0.0000
   1611 N3        -1.2614     2.0138   396.4932 N.2      130 DG      0.0000
   1612 C4        -2.4459     1.3775   396.4099 C.ar     130 DG      0.0000
   1613 H5'       -7.2531     4.5500   399.4847 H        130 DG      0.0000
   1614 H5''      -6.3859     2.9940   399.5919 H        130 DG      0.0000
   1615 H4'       -5.1414     5.2697   398.9294 H        130 DG      0.0000
   1616 H3'       -6.7512     5.1132   396.7159 H        130 DG      0.0000
   1617 H2'       -5.8928     3.0794   395.8414 H        130 DG      0.0000
   1618 H2''      -4.8144     4.2593   395.0253 H        130 DG      0.0000
   1619 H1'       -3.0885     3.9801   396.6026 H        130 DG      0.0000
   1620 H8        -5.6557     1.0683   396.4307 H        130 DG      0.0000
   1621 H1         0.5153    -0.6994   396.0100 H        130 DG      0.0000
   1622 H21        1.7970     1.0457   396.2837 H        130 DG      0.0000
   1623 H22        1.1507     2.6473   396.5619 H        130 DG      0.0000
   1624 P         -4.5778     6.4888   395.0959 P.3      129 DT      0.0000
   1625 OP1       -4.5268     7.9413   394.7050 O.co2    129 DT      0.0000
   1626 OP2       -5.6783     5.7821   394.3953 O.co2    129 DT      0.0000
   1627 O5'       -3.1220     5.8327   394.9650 O.3      129 DT      0.0000
   1628 C5'       -1.9787     6.7063   395.2326 C.3      129 DT      0.0000
   1629 C4'       -0.7818     6.1732   394.4756 C.3      129 DT      0.0000
   1630 O4'       -0.7317     4.7579   394.4483 O.3      129 DT      0.0000
   1631 C3'       -0.7510     6.6158   393.0209 C.3      129 DT      0.0000
   1632 O3'        0.5716     6.9178   392.5258 O.3      129 DT      0.0000
   1633 C2'       -1.3682     5.4391   392.2980 C.3      129 DT      0.0000
   1634 C1'       -0.7229     4.3043   393.0761 C.3      129 DT      0.0000
   1635 N1        -1.6014     3.1337   392.9248 N.am     129 DT      0.0000
   1636 C2        -0.9901     1.8887   393.0316 C.2      129 DT      0.0000
   1637 O2         0.2185     1.8039   393.2213 O.2      129 DT      0.0000
   1638 N3        -1.7912     0.7877   392.9114 N.am     129 DT      0.0000
   1639 C4        -3.1324     0.8922   392.6938 C.2      129 DT      0.0000
   1640 O4        -3.7975    -0.1916   392.5963 O.2      129 DT      0.0000
   1641 C5        -3.7297     2.1807   392.5875 C.2      129 DT      0.0000
   1642 C7        -5.2085     2.3079   392.3585 C.3      129 DT      0.0000
   1643 C6        -2.9425     3.2526   392.7092 C.2      129 DT      0.0000
   1644 H5'       -2.2037     7.7193   394.8989 H        129 DT      0.0000
   1645 H5''      -1.7638     6.7118   396.3012 H        129 DT      0.0000
   1646 H4'        0.1219     6.5383   394.9635 H        129 DT      0.0000
   1647 H3'       -1.3902     7.4900   392.8969 H        129 DT      0.0000
   1648 H2'       -2.4543     5.4294   392.3896 H        129 DT      0.0000
   1649 H2''      -1.0634     5.4190   391.2516 H        129 DT      0.0000
   1650 H1'        0.2883     4.0982   392.7255 H        129 DT      0.0000
   1651 H3        -1.3770    -0.1304   392.9861 H        129 DT      0.0000
   1652 H6        -3.3788     4.2377   392.6351 H        129 DT      0.0000
   1653 H71       -5.6528     1.3150   392.2898 H        129 DT      0.0000
   1654 H72       -5.6592     2.8507   393.1894 H        129 DT      0.0000
   1655 H73       -5.3872     2.8509   391.4304 H        129 DT      0.0000
   1656 P          0.4794     8.3808   391.7474 P.3      128 DG      0.0000
   1657 OP1        0.8373     9.5406   392.6186 O.co2    128 DG      0.0000
   1658 OP2       -0.9472     8.3236   391.3418 O.co2    128 DG      0.0000
   1659 O5'        1.6443     8.2089   390.6665 O.3      128 DG      0.0000
   1660 C5'        3.0213     8.3754   391.0900 C.3      128 DG      0.0000
   1661 C4'        3.7232     7.0994   390.6423 C.3      128 DG      0.0000
   1662 O4'        2.8986     5.9836   390.9130 O.3      128 DG      0.0000
   1663 C3'        4.0726     7.0609   389.1546 C.3      128 DG      0.0000
   1664 O3'        5.4556     6.8373   388.9460 O.3      128 DG      0.0000
   1665 C2'        3.1453     6.0060   388.5778 C.3      128 DG      0.0000
   1666 C1'        2.8824     5.1085   389.7640 C.3      128 DG      0.0000
   1667 N9         1.5817     4.4451   389.6404 N.ar     128 DG      0.0000
   1668 C8         0.3504     5.0153   389.4815 C.ar     128 DG      0.0000
   1669 N7        -0.6275     4.1461   389.4035 N.ar     128 DG      0.0000
   1670 C5         0.0040     2.9134   389.5410 C.ar     128 DG      0.0000
   1671 C6        -0.5010     1.5864   389.5505 C.2      128 DG      0.0000
   1672 O6        -1.6735     1.2393   389.4514 O.2      128 DG      0.0000
   1673 N1         0.4502     0.6174   389.6995 N.am     128 DG      0.0000
   1674 C2         1.7842     0.9181   389.8323 C.2      128 DG      0.0000
   1675 N2         2.6053    -0.1237   389.9680 N.pl3    128 DG      0.0000
   1676 N3         2.3240     2.1411   389.8366 N.2      128 DG      0.0000
   1677 C4         1.3695     3.0907   389.6859 C.ar     128 DG      0.0000
   1678 H5'        3.4674     9.2470   390.6113 H        128 DG      0.0000
   1679 H5''       3.0729     8.4732   392.1744 H        128 DG      0.0000
   1680 H4'        4.6444     6.9939   391.2153 H        128 DG      0.0000
   1681 H3'        3.8112     8.0239   388.7160 H        128 DG      0.0000
   1682 H2'        2.2214     6.4533   388.2115 H        128 DG      0.0000
   1683 H2''       3.6439     5.4522   387.7823 H        128 DG      0.0000
   1684 H1'        3.6739     4.3642   389.8510 H        128 DG      0.0000
   1685 H8         0.1971     6.0829   389.4255 H        128 DG      0.0000
   1686 H1         0.1637    -0.3510   389.7123 H        128 DG      0.0000
   1687 H21        2.2337    -1.0628   389.9690 H        128 DG      0.0000
   1688 H22        3.5988     0.0263   390.0698 H        128 DG      0.0000
   1689 P          6.3074     5.8267   388.0797 P.3      127 DA      0.0000
   1690 OP1        7.5486     5.3773   388.8611 O.co2    127 DA      0.0000
   1691 OP2        6.6992     6.5812   386.8870 O.co2    127 DA      0.0000
   1692 O5'        5.3899     4.4919   387.9049 O.3      127 DA      0.0000
   1693 C5'        5.5260     3.5834   389.0614 C.3      127 DA      0.0000
   1694 C4'        6.1194     2.3006   388.5336 C.3      127 DA      0.0000
   1695 O4'        5.1478     1.3103   388.3113 O.3      127 DA      0.0000
   1696 C3'        6.8307     2.4806   387.1931 C.3      127 DA      0.0000
   1697 O3'        8.0341     1.7543   387.1179 O.3      127 DA      0.0000
   1698 C2'        5.7373     2.1401   386.1965 C.3      127 DA      0.0000
   1699 C1'        4.7622     1.2541   386.9204 C.3      127 DA      0.0000
   1700 N9         3.3702     1.6793   386.6949 N.ar     127 DA      0.0000
   1701 C8         2.8722     2.9508   386.5085 C.ar     127 DA      0.0000
   1702 N7         1.5747     3.0009   386.3126 N.ar     127 DA      0.0000
   1703 C5         1.1884     1.6692   386.3995 C.ar     127 DA      0.0000
   1704 C6        -0.0811     1.0544   386.2938 C.ar     127 DA      0.0000
   1705 N6        -1.2040     1.7176   386.0814 N.pl3    127 DA      0.0000
   1706 N1        -0.1018    -0.3015   386.4175 N.ar     127 DA      0.0000
   1707 C2         1.0426    -1.0124   386.6421 C.ar     127 DA      0.0000
   1708 N3         2.2644    -0.4962   386.7580 N.ar     127 DA      0.0000
   1709 C4         2.2722     0.8520   386.6218 C.ar     127 DA      0.0000
   1710 H5'        6.1856     4.0230   389.8095 H        127 DA      0.0000
   1711 H5''       4.5466     3.3879   389.4981 H        127 DA      0.0000
   1712 H4'        6.8387     1.9250   389.2613 H        127 DA      0.0000
   1713 H3'        7.0698     3.5380   387.0800 H        127 DA      0.0000
   1714 H2'        6.1590     1.6148   385.3397 H        127 DA      0.0000
   1715 H2''       5.2381     3.0510   385.8660 H        127 DA      0.0000
   1716 H1'        4.8813     0.2316   386.5622 H        127 DA      0.0000
   1717 H8         3.4966     3.8319   386.5224 H        127 DA      0.0000
   1718 H2         0.9484    -2.0844   386.7333 H        127 DA      0.0000
   1719 H61       -2.0925     1.3553   386.3968 H        127 DA      0.0000
   1720 H62       -1.1734     2.6024   385.5951 H        127 DA      0.0000
   1721 P          8.6939     0.9430   385.9333 P.3      126 DA      0.0000
   1722 OP1        9.8942     0.0992   386.4532 O.co2    126 DA      0.0000
   1723 OP2        9.2065     1.9937   384.9996 O.co2    126 DA      0.0000
   1724 O5'        7.6301    -0.1047   385.4306 O.3      126 DA      0.0000
   1725 C5'        7.6940    -1.4720   385.8865 C.3      126 DA      0.0000
   1726 C4'        6.5843    -2.2239   385.1845 C.3      126 DA      0.0000
   1727 O4'        5.3894    -1.5061   385.0638 O.3      126 DA      0.0000
   1728 C3'        6.9576    -2.6870   383.7770 C.3      126 DA      0.0000
   1729 O3'        7.0159    -4.1256   383.7456 O.3      126 DA      0.0000
   1730 C2'        5.9418    -1.9805   382.8774 C.3      126 DA      0.0000
   1731 C1'        4.7554    -1.8006   383.7752 C.3      126 DA      0.0000
   1732 N9         3.8772    -0.6744   383.4756 N.ar     126 DA      0.0000
   1733 C8         4.1958     0.6537   383.2809 C.ar     126 DA      0.0000
   1734 N7         3.1516     1.4249   383.0754 N.ar     126 DA      0.0000
   1735 C5         2.0749     0.5628   383.1500 C.ar     126 DA      0.0000
   1736 C6         0.6846     0.7760   383.0165 C.ar     126 DA      0.0000
   1737 N6         0.1375     1.9631   382.7733 N.pl3    126 DA      0.0000
   1738 N1        -0.0949    -0.3430   383.1653 N.ar     126 DA      0.0000
   1739 C2         0.4304    -1.5572   383.4179 C.ar     126 DA      0.0000
   1740 N3         1.7306    -1.8335   383.5567 N.ar     126 DA      0.0000
   1741 C4         2.4960    -0.7292   383.4095 C.ar     126 DA      0.0000
   1742 H5'        8.6604    -1.9068   385.6313 H        126 DA      0.0000
   1743 H5''       7.5433    -1.5106   386.9653 H        126 DA      0.0000
   1744 H4'        6.3707    -3.1151   385.7747 H        126 DA      0.0000
   1745 H3'        7.9491    -2.2999   383.5420 H        126 DA      0.0000
   1746 H2'        6.3241    -1.0179   382.5376 H        126 DA      0.0000
   1747 H2''       5.6837    -2.6103   382.0261 H        126 DA      0.0000
   1748 H1'        4.1810    -2.7250   383.8363 H        126 DA      0.0000
   1749 H8         5.2098     1.0254   383.2959 H        126 DA      0.0000
   1750 H2        -0.2607    -2.3812   383.5169 H        126 DA      0.0000
   1751 H61       -0.8236     2.0638   383.0673 H        126 DA      0.0000
   1752 H62        0.6470     2.7117   382.3260 H        126 DA      0.0000
   1753 P          7.3799    -4.8613   382.3606 P.3      125 DT      0.0000
   1754 OP1        7.7443    -6.3129   382.4187 O.co2    125 DT      0.0000
   1755 OP2        8.4500    -3.9520   381.8480 O.co2    125 DT      0.0000
   1756 O5'        5.8707    -4.7865   381.6575 O.3      125 DT      0.0000
   1757 C5'        4.8631    -5.0876   382.6698 C.3      125 DT      0.0000
   1758 C4'        3.6169    -5.5529   381.9868 C.3      125 DT      0.0000
   1759 O4'        2.6691    -4.5436   381.8064 O.3      125 DT      0.0000
   1760 C3'        3.8535    -6.1886   380.6256 C.3      125 DT      0.0000
   1761 O3'        2.9774    -7.2904   380.3583 O.3      125 DT      0.0000
   1762 C2'        3.6462    -4.9586   379.7322 C.3      125 DT      0.0000
   1763 C1'        2.4344    -4.3158   380.3722 C.3      125 DT      0.0000
   1764 N1         2.4174    -2.8589   380.1423 N.am     125 DT      0.0000
   1765 C2         1.1830    -2.2454   380.0207 C.2      125 DT      0.0000
   1766 O2         0.1399    -2.9001   380.0574 O.2      125 DT      0.0000
   1767 N3         1.1546    -0.8875   379.8532 N.am     125 DT      0.0000
   1768 C4         2.2929    -0.1448   379.8047 C.2      125 DT      0.0000
   1769 O4         2.1734     1.1030   379.6192 O.2      125 DT      0.0000
   1770 C5         3.5512    -0.7926   379.9531 C.2      125 DT      0.0000
   1771 C7         4.8359    -0.0004   379.9010 C.3      125 DT      0.0000
   1772 C6         3.5618    -2.1185   380.1261 C.2      125 DT      0.0000
   1773 H5'        5.2321    -5.8710   383.3319 H        125 DT      0.0000
   1774 H5''       4.6484    -4.1901   383.2498 H        125 DT      0.0000
   1775 H4'        3.1634    -6.3123   382.6239 H        125 DT      0.0000
   1776 H3'        4.8892    -6.5208   380.5535 H        125 DT      0.0000
   1777 H2'        4.5105    -4.2952   379.7628 H        125 DT      0.0000
   1778 H2''       3.4271    -5.2590   378.7076 H        125 DT      0.0000
   1779 H1'        1.5088    -4.7849   380.0383 H        125 DT      0.0000
   1780 H3         0.2621    -0.4232   379.7631 H        125 DT      0.0000
   1781 H6         4.5093    -2.6199   380.2575 H        125 DT      0.0000
   1782 H71        5.2543    -0.0514   378.8958 H        125 DT      0.0000
   1783 H72        5.5487    -0.4173   380.6126 H        125 DT      0.0000
   1784 H73        4.6323     1.0392   380.1575 H        125 DT      0.0000
   1785 P          3.1072    -7.9520   378.8684 P.3      124 DT      0.0000
   1786 OP1        3.6442    -9.3769   379.0163 O.co2    124 DT      0.0000
   1787 OP2        4.1387    -7.0902   378.1985 O.co2    124 DT      0.0000
   1788 O5'        1.7014    -7.9198   378.2163 O.3      124 DT      0.0000
   1789 C5'        0.4896    -7.9919   378.9677 C.3      124 DT      0.0000
   1790 C4'       -0.5705    -7.2490   378.2197 C.3      124 DT      0.0000
   1791 O4'       -0.4928    -5.8503   378.1627 O.3      124 DT      0.0000
   1792 C3'       -0.8284    -7.6594   376.7537 C.3      124 DT      0.0000
   1793 O3'       -2.2417    -7.4620   376.6499 O.3      124 DT      0.0000
   1794 C2'       -0.0392    -6.5877   375.9899 C.3      124 DT      0.0000
   1795 C1'       -0.5511    -5.3912   376.7657 C.3      124 DT      0.0000
   1796 N1         0.2511    -4.1692   376.6595 N.am     124 DT      0.0000
   1797 C2        -0.4761    -2.9714   376.6589 C.2      124 DT      0.0000
   1798 O2        -1.7082    -2.9751   376.7019 O.2      124 DT      0.0000
   1799 N3         0.2399    -1.8102   376.6054 N.am     124 DT      0.0000
   1800 C4         1.6016    -1.7850   376.5457 C.2      124 DT      0.0000
   1801 O4         2.1741    -0.6555   376.4833 O.2      124 DT      0.0000
   1802 C5         2.3146    -3.0149   376.5539 C.2      124 DT      0.0000
   1803 C7         3.8277    -3.0016   376.4925 C.3      124 DT      0.0000
   1804 C6         1.6100    -4.1483   376.6204 C.2      124 DT      0.0000
   1805 H5'        0.1931    -9.0336   379.0899 H        124 DT      0.0000
   1806 H5''       0.6369    -7.5350   379.9463 H        124 DT      0.0000
   1807 H4'       -1.4999    -7.4646   378.7470 H        124 DT      0.0000
   1808 H3'       -0.5132    -8.6774   376.5250 H        124 DT      0.0000
   1809 H2'       -0.3078    -6.5457   374.9344 H        124 DT      0.0000
   1810 H2''       1.0351    -6.7163   376.1215 H        124 DT      0.0000
   1811 H1'       -1.5839    -5.1824   376.4866 H        124 DT      0.0000
   1812 H3        -0.2603    -0.9328   376.6103 H        124 DT      0.0000
   1813 H6         2.1426    -5.0875   376.6441 H        124 DT      0.0000
   1814 H71        4.1809    -1.9716   376.4437 H        124 DT      0.0000
   1815 H72        4.1598    -3.5418   375.6059 H        124 DT      0.0000
   1816 H73        4.2317    -3.4824   377.3834 H        124 DT      0.0000
   1817 P         -3.1682    -7.9499   375.5037 P.3      123 DC      0.0000
   1818 OP1       -4.3861    -8.6471   376.1128 O.co2    123 DC      0.0000
   1819 OP2       -2.3618    -8.9388   374.7218 O.co2    123 DC      0.0000
   1820 O5'       -3.5213    -6.5418   374.7643 O.3      123 DC      0.0000
   1821 C5'       -4.4617    -5.6827   375.4888 C.3      123 DC      0.0000
   1822 C4'       -5.2740    -4.9710   374.4383 C.3      123 DC      0.0000
   1823 O4'       -4.8033    -3.6662   374.1930 O.3      123 DC      0.0000
   1824 C3'       -5.3235    -5.6606   373.0738 C.3      123 DC      0.0000
   1825 O3'       -6.5527    -5.4915   372.3646 O.3      123 DC      0.0000
   1826 C2'       -4.1082    -5.0217   372.3877 C.3      123 DC      0.0000
   1827 C1'       -4.1338    -3.5956   372.9343 C.3      123 DC      0.0000
   1828 N1        -2.7330    -3.1267   373.0521 N.am     123 DC      0.0000
   1829 C2        -2.5257    -1.7482   373.0693 C.2      123 DC      0.0000
   1830 O2        -3.4760    -0.9567   373.0007 O.2      123 DC      0.0000
   1831 N3        -1.2329    -1.3105   373.1726 N.2      123 DC      0.0000
   1832 C4        -0.1828    -2.1698   373.2433 C.2      123 DC      0.0000
   1833 N4         1.0602    -1.6942   373.3453 N.pl3    123 DC      0.0000
   1834 C5        -0.4223    -3.5721   373.2182 C.2      123 DC      0.0000
   1835 C6        -1.6925    -4.0012   373.1246 C.2      123 DC      0.0000
   1836 H5'       -5.1106    -6.2848   376.1248 H        123 DC      0.0000
   1837 H5''      -3.9157    -4.9579   376.0927 H        123 DC      0.0000
   1838 H4'       -6.2966    -4.8911   374.8070 H        123 DC      0.0000
   1839 H3'       -5.1354    -6.7258   373.2080 H        123 DC      0.0000
   1840 H2'       -4.2183    -5.0302   371.3033 H        123 DC      0.0000
   1841 H2''      -3.1900    -5.5292   372.6837 H        123 DC      0.0000
   1842 H1'       -4.6869    -2.9471   372.2549 H        123 DC      0.0000
   1843 H5         0.3965    -4.2744   373.2730 H        123 DC      0.0000
   1844 H6        -1.8919    -5.0626   373.1065 H        123 DC      0.0000
   1845 H41        1.2193    -0.6970   373.3660 H        123 DC      0.0000
   1846 H42        1.8417    -2.3315   373.4016 H        123 DC      0.0000
   1847 P         -6.7096    -5.3180   370.7326 P.3      122 DA      0.0000
   1848 OP1       -8.1111    -5.7361   370.3431 O.co2    122 DA      0.0000
   1849 OP2       -5.6248    -6.1624   370.1625 O.co2    122 DA      0.0000
   1850 O5'       -6.5989    -3.7341   370.5670 O.3      122 DA      0.0000
   1851 C5'       -7.7365    -2.9088   371.0324 C.3      122 DA      0.0000
   1852 C4'       -7.6039    -1.6756   370.1552 C.3      122 DA      0.0000
   1853 O4'       -6.3561    -1.0230   370.4225 O.3      122 DA      0.0000
   1854 C3'       -7.5590    -1.9973   368.6508 C.3      122 DA      0.0000
   1855 O3'       -7.8132    -0.8461   367.8617 O.3      122 DA      0.0000
   1856 C2'       -6.0599    -2.2948   368.4633 C.3      122 DA      0.0000
   1857 C1'       -5.5781    -1.0256   369.2180 C.3      122 DA      0.0000
   1858 N9        -4.1381    -1.2119   369.3634 N.ar     122 DA      0.0000
   1859 C8        -3.4715    -2.4145   369.4362 C.ar     122 DA      0.0000
   1860 N7        -2.1737    -2.2832   369.5509 N.ar     122 DA      0.0000
   1861 C5        -1.9817    -0.8900   369.5445 C.ar     122 DA      0.0000
   1862 C6        -0.7955    -0.1122   369.6444 C.ar     122 DA      0.0000
   1863 N6         0.4280    -0.6352   369.7673 N.pl3    122 DA      0.0000
   1864 N1        -1.0005     1.2342   369.6093 N.ar     122 DA      0.0000
   1865 C2        -2.2419     1.7654   369.4904 C.ar     122 DA      0.0000
   1866 N3        -3.3950     1.0965   369.3989 N.ar     122 DA      0.0000
   1867 C4        -3.1801    -0.2304   369.4265 C.ar     122 DA      0.0000
   1868 H5'       -8.6878    -3.4140   370.8657 H        122 DA      0.0000
   1869 H5''      -7.6180    -2.6478   372.0841 H        122 DA      0.0000
   1870 H4'       -8.4269    -0.9906   370.3591 H        122 DA      0.0000
   1871 H3'       -8.1933    -2.8417   368.3811 H        122 DA      0.0000
   1872 H2'       -5.7463    -3.2209   368.9449 H        122 DA      0.0000
   1873 H2''      -5.7733    -2.2709   367.4119 H        122 DA      0.0000
   1874 H1'       -5.7874    -0.1323   368.6295 H        122 DA      0.0000
   1875 H8        -3.9700    -3.3720   369.4022 H        122 DA      0.0000
   1876 H2        -2.3058     2.8432   369.4672 H        122 DA      0.0000
   1877 H61        0.5485    -1.6376   369.7920 H        122 DA      0.0000
   1878 H62        1.2322    -0.0280   369.8354 H        122 DA      0.0000
   1879 P         -8.9174    -0.8714   366.7208 P.3      121 DC      0.0000
   1880 OP1      -10.1918    -0.5944   367.5011 O.co2    121 DC      0.0000
   1881 OP2       -8.9524    -2.1462   365.9952 O.co2    121 DC      0.0000
   1882 O5'       -8.3722     0.3347   365.7449 O.3      121 DC      0.0000
   1883 C5'       -8.1054     1.6262   366.4140 C.3      121 DC      0.0000
   1884 C4'       -6.8996     2.2579   365.7699 C.3      121 DC      0.0000
   1885 O4'       -5.6711     1.9295   366.4071 O.3      121 DC      0.0000
   1886 C3'       -6.7350     1.8639   364.2921 C.3      121 DC      0.0000
   1887 O3'       -6.1726     2.8876   363.4808 O.3      121 DC      0.0000
   1888 C2'       -5.6906     0.7118   364.4578 C.3      121 DC      0.0000
   1889 C1'       -4.7443     1.5934   365.3533 C.3      121 DC      0.0000
   1890 N1        -3.5521     0.8226   365.5912 N.am     121 DC      0.0000
   1891 C2        -2.3830     1.4951   365.9084 C.2      121 DC      0.0000
   1892 O2        -2.1822     2.7068   366.0488 O.2      121 DC      0.0000
   1893 N3        -1.2507     0.7548   366.1066 N.2      121 DC      0.0000
   1894 C4        -1.2464    -0.6080   365.9906 C.2      121 DC      0.0000
   1895 N4        -0.1128    -1.2934   366.2067 N.pl3    121 DC      0.0000
   1896 C5        -2.4535    -1.2840   365.6610 C.2      121 DC      0.0000
   1897 C6        -3.5479    -0.5382   365.4693 C.2      121 DC      0.0000
   1898 H5'       -8.9681     2.2831   366.3025 H        121 DC      0.0000
   1899 H5''      -7.9086     1.4566   367.4726 H        121 DC      0.0000
   1900 H4'       -7.0228     3.3399   365.8167 H        121 DC      0.0000
   1901 H3'       -7.6709     1.4943   363.8731 H        121 DC      0.0000
   1902 H2'       -6.0870    -0.1620   364.9749 H        121 DC      0.0000
   1903 H2''      -5.2230     0.4466   363.5095 H        121 DC      0.0000
   1904 H1'       -4.4801     2.4998   364.8084 H        121 DC      0.0000
   1905 H5        -2.4857    -2.3596   365.5688 H        121 DC      0.0000
   1906 H6        -4.4701    -1.0347   365.2060 H        121 DC      0.0000
   1907 H41        0.7363    -0.8021   366.4472 H        121 DC      0.0000
   1908 H42       -0.1088    -2.3004   366.1287 H        121 DC      0.0000
   1909 P          9.9153     1.4382   400.0800 P.3      131 DG      0.0000
   1910 OP1       11.3083     0.9274   400.0784 O.co2    131 DG      0.0000
   1911 OP2        9.1478     0.6291   401.1357 O.co2    131 DG      0.0000
   1912 O5'        9.7256     3.0079   400.2584 O.3      131 DG      0.0000
   1913 C5'        9.4341     4.0071   399.2584 C.3      131 DG      0.0000
   1914 C4'        8.2792     4.8503   399.7572 C.3      131 DG      0.0000
   1915 O4'        7.0312     4.3420   399.3380 O.3      131 DG      0.0000
   1916 C3'        8.1695     5.0902   401.2494 C.3      131 DG      0.0000
   1917 O3'        8.0977     6.5076   401.5614 O.3      131 DG      0.0000
   1918 C2'        6.9331     4.3193   401.6712 C.3      131 DG      0.0000
   1919 C1'        6.0962     4.2775   400.4156 C.3      131 DG      0.0000
   1920 N9         5.2899     3.0436   400.3865 N.ar     131 DG      0.0000
   1921 C8         5.6760     1.7440   400.6154 C.ar     131 DG      0.0000
   1922 N7         4.6988     0.8703   400.5257 N.ar     131 DG      0.0000
   1923 C5         3.5877     1.6474   400.2087 C.ar     131 DG      0.0000
   1924 C6         2.2312     1.3070   399.9828 C.2      131 DG      0.0000
   1925 O6         1.7117     0.1908   400.0041 O.2      131 DG      0.0000
   1926 N1         1.4054     2.3607   399.7013 N.am     131 DG      0.0000
   1927 C2         1.8196     3.5858   399.6406 C.2      131 DG      0.0000
   1928 N2         0.8558     4.3683   399.3438 N.pl3    131 DG      0.0000
   1929 N3         3.1323     4.0207   399.8494 N.2      131 DG      0.0000
   1930 C4         3.9357     2.9824   400.1219 C.ar     131 DG      0.0000
   1931 H5'       10.3095     4.6370   399.0996 H        131 DG      0.0000
   1932 H5''       9.1569     3.5209   398.3230 H        131 DG      0.0000
   1933 H4'        8.3871     5.8303   399.2925 H        131 DG      0.0000
   1934 H3'        9.0413     4.6614   401.7433 H        131 DG      0.0000
   1935 H2'        7.1946     3.3130   401.9982 H        131 DG      0.0000
   1936 H2''       6.4050     4.8511   402.4627 H        131 DG      0.0000
   1937 H1'        5.4387     5.1463   400.3837 H        131 DG      0.0000
   1938 H8         6.6932     1.4658   400.8485 H        131 DG      0.0000
   1939 H1         0.4272     2.1742   399.5329 H        131 DG      0.0000
   1940 H21       -0.0715     3.9951   399.1995 H        131 DG      0.0000
   1941 H22        1.0206     5.3606   399.2534 H        131 DG      0.0000
   1942 P          7.6967     7.0470   402.9899 P.3      132 DT      0.0000
   1943 OP1        8.4792     8.2287   403.5016 O.co2    132 DT      0.0000
   1944 OP2        8.1040     5.8807   403.9086 O.co2    132 DT      0.0000
   1945 O5'        6.1546     7.2020   403.0185 O.3      132 DT      0.0000
   1946 C5'        5.4821     8.4832   402.8745 C.3      132 DT      0.0000
   1947 C4'        4.0063     8.1483   402.9320 C.3      132 DT      0.0000
   1948 O4'        3.7576     6.7872   402.6568 O.3      132 DT      0.0000
   1949 C3'        3.3108     8.4061   404.2447 C.3      132 DT      0.0000
   1950 O3'        2.3366     9.4429   404.0565 O.3      132 DT      0.0000
   1951 C2'        2.6543     7.0826   404.6370 C.3      132 DT      0.0000
   1952 C1'        2.4886     6.4404   403.2842 C.3      132 DT      0.0000
   1953 N1         2.4335     4.9816   403.3808 N.am     132 DT      0.0000
   1954 C2         1.2191     4.3823   403.1829 C.2      132 DT      0.0000
   1955 O2         0.1980     5.0231   402.9447 O.2      132 DT      0.0000
   1956 N3         1.1774     3.0164   403.2640 N.am     132 DT      0.0000
   1957 C4         2.2698     2.2616   403.5199 C.2      132 DT      0.0000
   1958 O4         2.0758     1.0186   403.5652 O.2      132 DT      0.0000
   1959 C5         3.5327     2.9063   403.7196 C.2      132 DT      0.0000
   1960 C7         4.7647     2.1084   403.9995 C.3      132 DT      0.0000
   1961 C6         3.5642     4.2426   403.6381 C.2      132 DT      0.0000
   1962 H5'        5.7561     9.1551   403.6879 H        132 DT      0.0000
   1963 H5''       5.7298     8.9336   401.9133 H        132 DT      0.0000
   1964 H4'        3.5019     8.7390   402.1675 H        132 DT      0.0000
   1965 H3'        4.0359     8.7047   405.0018 H        132 DT      0.0000
   1966 H2'        3.3002     6.4910   405.2858 H        132 DT      0.0000
   1967 H2''       1.6856     7.2543   405.1062 H        132 DT      0.0000
   1968 H1'        1.6372     6.8475   402.7389 H        132 DT      0.0000
   1969 H3         0.2913     2.5517   403.1265 H        132 DT      0.0000
   1970 H6         4.5047     4.7546   403.7785 H        132 DT      0.0000
   1971 H71        5.3675     2.0402   403.0939 H        132 DT      0.0000
   1972 H72        4.4826     1.1069   404.3242 H        132 DT      0.0000
   1973 H73        5.3425     2.5958   404.7848 H        132 DT      0.0000
   1974 P          2.2117    10.4390   405.3365 P.3      133 DG      0.0000
   1975 OP1        1.9673    11.7618   404.6214 O.co2    133 DG      0.0000
   1976 OP2        3.4521    10.3947   406.0900 O.co2    133 DG      0.0000
   1977 O5'        0.8618     9.7530   405.9460 O.3      133 DG      0.0000
   1978 C5'       -0.1108     9.5340   404.8554 C.3      133 DG      0.0000
   1979 C4'       -1.1781     8.6167   405.3754 C.3      133 DG      0.0000
   1980 O4'       -0.9654     7.2421   405.1949 O.3      133 DG      0.0000
   1981 C3'       -1.4578     8.8289   406.8835 C.3      133 DG      0.0000
   1982 O3'       -2.8758     9.0768   407.0423 O.3      133 DG      0.0000
   1983 C2'       -0.9164     7.5748   407.5360 C.3      133 DG      0.0000
   1984 C1'       -1.1648     6.5299   406.4545 C.3      133 DG      0.0000
   1985 N9        -0.2870     5.3666   406.6240 N.ar     133 DG      0.0000
   1986 C8         1.0383     5.3367   406.9602 C.ar     133 DG      0.0000
   1987 N7         1.5549     4.1306   407.0460 N.ar     133 DG      0.0000
   1988 C5         0.4809     3.3072   406.7159 C.ar     133 DG      0.0000
   1989 C6         0.3891     1.8890   406.6216 C.2      133 DG      0.0000
   1990 O6         1.2808     1.0491   406.8139 O.2      133 DG      0.0000
   1991 N1        -0.8610     1.4211   406.2866 N.am     133 DG      0.0000
   1992 C2        -1.9087     2.2613   406.0628 C.2      133 DG      0.0000
   1993 N2        -3.0493     1.6305   405.7540 N.pl3    133 DG      0.0000
   1994 N3        -1.8725     3.5900   406.1338 N.2      133 DG      0.0000
   1995 C4        -0.6523     4.0492   406.4604 C.ar     133 DG      0.0000
   1996 H5'       -0.5519    10.4844   404.5549 H        133 DG      0.0000
   1997 H5''       0.3884     9.0732   404.0030 H        133 DG      0.0000
   1998 H4'       -2.0967     8.8671   404.8449 H        133 DG      0.0000
   1999 H3'       -0.8967     9.6934   407.2382 H        133 DG      0.0000
   2000 H2'        0.1462     7.6705   407.7590 H        133 DG      0.0000
   2001 H2''      -1.4794     7.3364   408.4385 H        133 DG      0.0000
   2002 H1'       -2.2022     6.2008   406.5134 H        133 DG      0.0000
   2003 H8         1.6146     6.2321   407.1409 H        133 DG      0.0000
   2004 H1        -1.0055     0.4249   406.2042 H        133 DG      0.0000
   2005 H21       -3.0709     0.6219   405.7038 H        133 DG      0.0000
   2006 H22       -3.8876     2.1633   405.5713 H        133 DG      0.0000
   2007 P         -3.4911     9.4474   408.4307 P.3      134 DA      0.0000
   2008 OP1       -3.5292    10.8984   408.7861 O.co2    134 DA      0.0000
   2009 OP2       -2.3907     8.7688   409.3265 O.co2    134 DA      0.0000
   2010 O5'       -4.7843     8.5639   408.6799 O.3      134 DA      0.0000
   2011 C5'       -5.5730     7.9486   407.6508 C.3      134 DA      0.0000
   2012 C4'       -5.8097     6.5239   408.1251 C.3      134 DA      0.0000
   2013 O4'       -4.6188     5.7715   408.0348 O.3      134 DA      0.0000
   2014 C3'       -6.3287     6.3641   409.5542 C.3      134 DA      0.0000
   2015 O3'       -7.4381     5.4434   409.6065 O.3      134 DA      0.0000
   2016 C2'       -5.0862     5.8473   410.2896 C.3      134 DA      0.0000
   2017 C1'       -4.5319     4.9278   409.2120 C.3      134 DA      0.0000
   2018 N9        -3.1420     4.5199   409.4405 N.ar     134 DA      0.0000
   2019 C8        -2.0279     5.2804   409.6562 C.ar     134 DA      0.0000
   2020 N7        -0.9282     4.5795   409.8212 N.ar     134 DA      0.0000
   2021 C5        -1.3474     3.2650   409.6810 C.ar     134 DA      0.0000
   2022 C6        -0.6365     2.0460   409.7289 C.ar     134 DA      0.0000
   2023 N6         0.6766     1.9460   409.9487 N.pl3    134 DA      0.0000
   2024 N1        -1.3917     0.9234   409.5391 N.ar     134 DA      0.0000
   2025 C2        -2.7248     1.0021   409.3214 C.ar     134 DA      0.0000
   2026 N3        -3.4596     2.1122   409.2631 N.ar     134 DA      0.0000
   2027 C4        -2.7001     3.2069   409.4500 C.ar     134 DA      0.0000
   2028 H5'       -5.0336     7.9509   406.7036 H        134 DA      0.0000
   2029 H5''      -6.5235     8.4713   407.5430 H        134 DA      0.0000
   2030 H4'       -6.5397     6.0693   407.4553 H        134 DA      0.0000
   2031 H3'       -6.6261     7.3328   409.9556 H        134 DA      0.0000
   2032 H2'       -4.3932     6.6520   410.5351 H        134 DA      0.0000
   2033 H2''      -5.3641     5.2841   411.1805 H        134 DA      0.0000
   2034 H1'       -5.1696     4.0512   409.0975 H        134 DA      0.0000
   2035 H8        -2.0488     6.3597   409.6883 H        134 DA      0.0000
   2036 H2        -3.2479     0.0678   409.1800 H        134 DA      0.0000
   2037 H61        1.3391     2.7022   409.8513 H        134 DA      0.0000
   2038 H62        1.1249     1.0573   409.7772 H        134 DA      0.0000
   2039 P          2.7243    -8.0912   412.0534 P.3      134 DT      0.0000
   2040 OP1        3.1927    -9.5401   412.2014 O.co2    134 DT      0.0000
   2041 OP2        3.7958    -7.2796   411.3836 O.co2    134 DT      0.0000
   2042 O5'        1.3216    -7.9920   411.4013 O.3      134 DT      0.0000
   2043 C5'        0.1078    -8.0062   412.1527 C.3      134 DT      0.0000
   2044 C4'       -0.9157    -7.2135   411.4048 C.3      134 DT      0.0000
   2045 O4'       -0.7713    -5.8201   411.3478 O.3      134 DT      0.0000
   2046 C3'       -1.1928    -7.6111   409.9387 C.3      134 DT      0.0000
   2047 O3'       -2.5951    -7.3465   409.8349 O.3      134 DT      0.0000
   2048 C2'       -0.3535    -6.5783   409.1749 C.3      134 DT      0.0000
   2049 C1'       -0.8077    -5.3588   409.9507 C.3      134 DT      0.0000
   2050 N1         0.0519    -4.1765   409.8445 N.am     134 DT      0.0000
   2051 C2        -0.6174    -2.9453   409.8439 C.2      134 DT      0.0000
   2052 O2        -1.8482    -2.8902   409.8869 O.2      134 DT      0.0000
   2053 N3         0.1533    -1.8196   409.7904 N.am     134 DT      0.0000
   2054 C4         1.5147    -1.8594   409.7307 C.2      134 DT      0.0000
   2055 O4         2.1404    -0.7585   409.6683 O.2      134 DT      0.0000
   2056 C5         2.1681    -3.1219   409.7389 C.2      134 DT      0.0000
   2057 C7         3.6801    -3.1808   409.6775 C.3      134 DT      0.0000
   2058 C6         1.4102    -4.2204   409.8054 C.2      134 DT      0.0000
   2059 H5'       -0.2381    -9.0326   412.2750 H        134 DT      0.0000
   2060 H5''       0.2767    -7.5568   413.1313 H        134 DT      0.0000
   2061 H4'       -1.8543    -7.3845   411.9320 H        134 DT      0.0000
   2062 H3'       -0.9266    -8.6431   409.7100 H        134 DT      0.0000
   2063 H2'       -0.6198    -6.5235   408.1194 H        134 DT      0.0000
   2064 H2''       0.7134    -6.7580   409.3066 H        134 DT      0.0000
   2065 H1'       -1.8294    -5.1009   409.6717 H        134 DT      0.0000
   2066 H3        -0.3045    -0.9194   409.7953 H        134 DT      0.0000
   2067 H6         1.8974    -5.1840   409.8291 H        134 DT      0.0000
   2068 H71        4.0821    -2.1688   409.6287 H        134 DT      0.0000
   2069 H72        3.9861    -3.7362   408.7909 H        134 DT      0.0000
   2070 H73        4.0607    -3.6803   410.5685 H        134 DT      0.0000
   2071 P         -3.5439    -7.7897   408.6887 P.3      133 DC      0.0000
   2072 OP1       -4.7937    -8.4280   409.2979 O.co2    133 DC      0.0000
   2073 OP2       -2.7856    -8.8160   407.9069 O.co2    133 DC      0.0000
   2074 O5'       -3.8294    -6.3664   407.9493 O.3      133 DC      0.0000
   2075 C5'       -4.7277    -5.4633   408.6738 C.3      133 DC      0.0000
   2076 C4'       -5.5052    -4.7137   407.6233 C.3      133 DC      0.0000
   2077 O4'       -4.9727    -3.4328   407.3780 O.3      133 DC      0.0000
   2078 C3'       -5.5875    -5.4002   406.2589 C.3      133 DC      0.0000
   2079 O3'       -6.8073    -5.1726   405.5496 O.3      133 DC      0.0000
   2080 C2'       -4.3431    -4.8200   405.5728 C.3      133 DC      0.0000
   2081 C1'       -4.3006    -3.3943   406.1193 C.3      133 DC      0.0000
   2082 N1        -2.8791    -2.9928   406.2371 N.am     133 DC      0.0000
   2083 C2        -2.6062    -1.6257   406.2544 C.2      133 DC      0.0000
   2084 O2        -3.5177    -0.7898   406.1857 O.2      133 DC      0.0000
   2085 N3        -1.2940    -1.2502   406.3576 N.2      133 DC      0.0000
   2086 C4        -0.2861    -2.1586   406.4284 C.2      133 DC      0.0000
   2087 N4         0.9782    -1.7428   406.5303 N.pl3    133 DC      0.0000
   2088 C5        -0.5922    -3.5479   406.4032 C.2      133 DC      0.0000
   2089 C6        -1.8815    -3.9159   406.3096 C.2      133 DC      0.0000
   2090 H5'       -5.4047    -6.0338   409.3098 H        133 DC      0.0000
   2091 H5''      -4.1477    -4.7654   409.2777 H        133 DC      0.0000
   2092 H4'       -6.5228    -4.5852   407.9921 H        133 DC      0.0000
   2093 H3'       -5.4504    -6.4731   406.3931 H        133 DC      0.0000
   2094 H2'       -4.4535    -4.8232   404.4884 H        133 DC      0.0000
   2095 H2''      -3.4502    -5.3708   405.8687 H        133 DC      0.0000
   2096 H1'       -4.8222    -2.7201   405.4400 H        133 DC      0.0000
   2097 H5         0.1921    -4.2884   406.4580 H        133 DC      0.0000
   2098 H6        -2.1312    -4.9665   406.2915 H        133 DC      0.0000
   2099 H41        1.1846    -0.7544   406.5510 H        133 DC      0.0000
   2100 H42        1.7284    -2.4167   406.5867 H        133 DC      0.0000
   2101 P         -6.9557    -4.9919   403.9176 P.3      132 DA      0.0000
   2102 OP1       -8.3755    -5.3426   403.5281 O.co2    132 DA      0.0000
   2103 OP2       -5.9124    -5.8870   403.3475 O.co2    132 DA      0.0000
   2104 O5'       -6.7695    -3.4150   403.7521 O.3      132 DA      0.0000
   2105 C5'       -7.8664    -2.5364   404.2175 C.3      132 DA      0.0000
   2106 C4'       -7.6752    -1.3109   403.3402 C.3      132 DA      0.0000
   2107 O4'       -6.3977    -0.7186   403.6075 O.3      132 DA      0.0000
   2108 C3'       -7.6457    -1.6344   401.8358 C.3      132 DA      0.0000
   2109 O3'       -7.8447    -0.4723   401.0468 O.3      132 DA      0.0000
   2110 C2'       -6.1625    -2.0030   401.6483 C.3      132 DA      0.0000
   2111 C1'       -5.6207    -0.7583   402.4030 C.3      132 DA      0.0000
   2112 N9        -4.1912    -1.0131   402.5484 N.ar     132 DA      0.0000
   2113 C8        -3.5827    -2.2461   402.6213 C.ar     132 DA      0.0000
   2114 N7        -2.2801    -2.1769   402.7359 N.ar     132 DA      0.0000
   2115 C5        -2.0219    -0.7944   402.7295 C.ar     132 DA      0.0000
   2116 C6        -0.7999    -0.0741   402.8295 C.ar     132 DA      0.0000
   2117 N6         0.3972    -0.6549   402.9523 N.pl3    132 DA      0.0000
   2118 N1        -0.9405     1.2805   402.7943 N.ar     132 DA      0.0000
   2119 C2        -2.1552     1.8704   402.6754 C.ar     132 DA      0.0000
   2120 N3        -3.3388     1.2572   402.5840 N.ar     132 DA      0.0000
   2121 C4        -3.1875    -0.0785   402.6115 C.ar     132 DA      0.0000
   2122 H5'       -8.8407    -2.9957   404.0507 H        132 DA      0.0000
   2123 H5''      -7.7357    -2.2814   405.2691 H        132 DA      0.0000
   2124 H4'       -8.4646    -0.5874   403.5442 H        132 DA      0.0000
   2125 H3'       -8.3195    -2.4476   401.5662 H        132 DA      0.0000
   2126 H2'       -5.8934    -2.9431   402.1300 H        132 DA      0.0000
   2127 H2''      -5.8750    -1.9929   400.5970 H        132 DA      0.0000
   2128 H1'       -5.7871     0.1440   401.8146 H        132 DA      0.0000
   2129 H8        -4.1264    -3.1787   402.5872 H        132 DA      0.0000
   2130 H2        -2.1675     2.9500   402.6522 H        132 DA      0.0000
   2131 H61        0.4697    -1.6619   402.9771 H        132 DA      0.0000
   2132 H62        1.2295    -0.0868   403.0204 H        132 DA      0.0000
   2133 P         -8.9488    -0.4450   399.9058 P.3      131 DC      0.0000
   2134 OP1      -10.2085    -0.1075   400.6861 O.co2    131 DC      0.0000
   2135 OP2       -9.0446    -1.7166   399.1802 O.co2    131 DC      0.0000
   2136 O5'       -8.3467     0.7338   398.9300 O.3      131 DC      0.0000
   2137 C5'       -8.0186     2.0111   399.5990 C.3      131 DC      0.0000
   2138 C4'       -6.7841     2.5845   398.9550 C.3      131 DC      0.0000
   2139 O4'       -5.5726     2.1979   399.5921 O.3      131 DC      0.0000
   2140 C3'       -6.6384     2.1832   397.4771 C.3      131 DC      0.0000
   2141 O3'       -6.0278     3.1788   396.6658 O.3      131 DC      0.0000
   2142 C2'       -5.6501     0.9825   397.6428 C.3      131 DC      0.0000
   2143 C1'       -4.6629     1.8180   398.5384 C.3      131 DC      0.0000
   2144 N1        -3.5088     0.9911   398.7763 N.am     131 DC      0.0000
   2145 C2        -2.3090     1.6071   399.0934 C.2      131 DC      0.0000
   2146 O2        -2.0506     2.8078   399.2339 O.2      131 DC      0.0000
   2147 N3        -1.2132     0.8137   399.2916 N.2      131 DC      0.0000
   2148 C4        -1.2740    -0.5478   399.1756 C.2      131 DC      0.0000
   2149 N4        -0.1744    -1.2865   399.3917 N.pl3    131 DC      0.0000
   2150 C5        -2.5120    -1.1655   398.8460 C.2      131 DC      0.0000
   2151 C6        -3.5695    -0.3683   398.6543 C.2      131 DC      0.0000
   2152 H5'       -8.8490     2.7083   399.4875 H        131 DC      0.0000
   2153 H5''      -7.8301     1.8322   400.6576 H        131 DC      0.0000
   2154 H4'       -6.8554     3.6712   399.0017 H        131 DC      0.0000
   2155 H3'       -7.5909     1.8586   397.0581 H        131 DC      0.0000
   2156 H2'       -6.0878     0.1286   398.1599 H        131 DC      0.0000
   2157 H2''      -5.1957     0.6953   396.6946 H        131 DC      0.0000
   2158 H1'       -4.3557     2.7107   397.9935 H        131 DC      0.0000
   2159 H5        -2.5955    -2.2384   398.7539 H        131 DC      0.0000
   2160 H6        -4.5144    -0.8203   398.3910 H        131 DC      0.0000
   2161 H41        0.6972    -0.8364   399.6322 H        131 DC      0.0000
   2162 H42       -0.2185    -2.2925   399.3138 H        131 DC      0.0000
@<TRIPOS>BOND
     1      9     34 1
     2     42     66 1
     3     74     99 1
     4    107    131 1
     5    139    163 1
     6    171    195 1
     7    203    227 1
     8    235    257 1
     9    265    289 1
    10    327    352 1
    11    360    384 1
    12    392    417 1
    13    425    449 1
    14    457    481 1
    15    489    513 1
    16    521    545 1
    17    553    575 1
    18    583    607 1
    19      1      2 1
    20      1      3 1
    21      1      4 1
    22      4      5 1
    23      5      6 1
    24      6      7 1
    25      6      8 1
    26      7     11 1
    27      8      9 1
    28      8     10 1
    29     10     11 1
    30     11     12 1
    31     12     13 ar
    32     12     22 ar
    33     13     14 ar
    34     14     15 ar
    35     15     16 1
    36     15     22 ar
    37     16     17 2
    38     16     18 am
    39     18     19 1
    40     19     20 2
    41     19     21 2
    42     21     22 1
    43     34     35 1
    44     34     36 1
    45     34     37 1
    46     37     38 1
    47     38     39 1
    48     39     40 1
    49     39     41 1
    50     40     44 1
    51     41     42 1
    52     41     43 1
    53     43     44 1
    54     44     45 1
    55     45     46 am
    56     45     53 1
    57     46     47 2
    58     46     48 am
    59     48     49 am
    60     49     50 2
    61     49     51 1
    62     51     52 1
    63     51     53 2
    64     66     67 1
    65     66     68 1
    66     66     69 1
    67     69     70 1
    68     70     71 1
    69     71     72 1
    70     71     73 1
    71     72     76 1
    72     73     74 1
    73     73     75 1
    74     75     76 1
    75     76     77 1
    76     77     78 ar
    77     77     87 ar
    78     78     79 ar
    79     79     80 ar
    80     80     81 1
    81     80     87 ar
    82     81     82 2
    83     81     83 am
    84     83     84 1
    85     84     85 2
    86     84     86 2
    87     86     87 1
    88     99    100 1
    89     99    101 1
    90     99    102 1
    91    102    103 1
    92    103    104 1
    93    104    105 1
    94    104    106 1
    95    105    109 1
    96    106    107 1
    97    106    108 1
    98    108    109 1
    99    109    110 1
   100    110    111 ar
   101    110    119 ar
   102    111    112 ar
   103    112    113 ar
   104    113    114 ar
   105    113    119 ar
   106    114    115 1
   107    114    116 ar
   108    116    117 ar
   109    117    118 ar
   110    118    119 ar
   111    131    132 1
   112    131    133 1
   113    131    134 1
   114    134    135 1
   115    135    136 1
   116    136    137 1
   117    136    138 1
   118    137    141 1
   119    138    139 1
   120    138    140 1
   121    140    141 1
   122    141    142 1
   123    142    143 ar
   124    142    151 ar
   125    143    144 ar
   126    144    145 ar
   127    145    146 ar
   128    145    151 ar
   129    146    147 1
   130    146    148 ar
   131    148    149 ar
   132    149    150 ar
   133    150    151 ar
   134    163    164 1
   135    163    165 1
   136    163    166 1
   137    166    167 1
   138    167    168 1
   139    168    169 1
   140    168    170 1
   141    169    173 1
   142    170    171 1
   143    170    172 1
   144    172    173 1
   145    173    174 1
   146    174    175 am
   147    174    182 1
   148    175    176 2
   149    175    177 am
   150    177    178 am
   151    178    179 2
   152    178    180 1
   153    180    181 1
   154    180    182 2
   155    195    196 1
   156    195    197 1
   157    195    198 1
   158    198    199 1
   159    199    200 1
   160    200    201 1
   161    200    202 1
   162    201    205 1
   163    202    203 1
   164    202    204 1
   165    204    205 1
   166    205    206 1
   167    206    207 am
   168    206    214 1
   169    207    208 2
   170    207    209 am
   171    209    210 am
   172    210    211 2
   173    210    212 1
   174    212    213 1
   175    212    214 2
   176    227    228 1
   177    227    229 1
   178    227    230 1
   179    230    231 1
   180    231    232 1
   181    232    233 1
   182    232    234 1
   183    233    237 1
   184    234    235 1
   185    234    236 1
   186    236    237 1
   187    237    238 1
   188    238    239 am
   189    238    245 1
   190    239    240 2
   191    239    241 1
   192    241    242 2
   193    242    243 2
   194    242    244 2
   195    244    245 2
   196    257    258 1
   197    257    259 1
   198    257    260 1
   199    260    261 1
   200    261    262 1
   201    262    263 1
   202    262    264 1
   203    263    267 1
   204    264    265 1
   205    264    266 1
   206    266    267 1
   207    267    268 1
   208    268    269 ar
   209    268    277 ar
   210    269    270 ar
   211    270    271 ar
   212    271    272 ar
   213    271    277 ar
   214    272    273 1
   215    272    274 ar
   216    274    275 ar
   217    275    276 ar
   218    276    277 ar
   219    289    290 1
   220    289    291 1
   221    289    292 1
   222    292    293 1
   223    293    294 1
   224    294    295 1
   225    294    296 1
   226    295    299 1
   227    296    297 1
   228    296    298 1
   229    298    299 1
   230    299    300 1
   231    300    301 am
   232    300    307 1
   233    301    302 2
   234    301    303 1
   235    303    304 2
   236    304    305 2
   237    304    306 2
   238    306    307 2
   239    319    320 1
   240    319    321 1
   241    319    322 1
   242    322    323 1
   243    323    324 1
   244    324    325 1
   245    324    326 1
   246    325    329 1
   247    326    327 1
   248    326    328 1
   249    328    329 1
   250    329    330 1
   251    330    331 ar
   252    330    340 ar
   253    331    332 ar
   254    332    333 ar
   255    333    334 1
   256    333    340 ar
   257    334    335 2
   258    334    336 am
   259    336    337 1
   260    337    338 2
   261    337    339 2
   262    339    340 1
   263    352    353 1
   264    352    354 1
   265    352    355 1
   266    355    356 1
   267    356    357 1
   268    357    358 1
   269    357    359 1
   270    358    362 1
   271    359    360 1
   272    359    361 1
   273    361    362 1
   274    362    363 1
   275    363    364 am
   276    363    371 1
   277    364    365 2
   278    364    366 am
   279    366    367 am
   280    367    368 2
   281    367    369 1
   282    369    370 1
   283    369    371 2
   284    384    385 1
   285    384    386 1
   286    384    387 1
   287    387    388 1
   288    388    389 1
   289    389    390 1
   290    389    391 1
   291    390    394 1
   292    391    392 1
   293    391    393 1
   294    393    394 1
   295    394    395 1
   296    395    396 ar
   297    395    405 ar
   298    396    397 ar
   299    397    398 ar
   300    398    399 1
   301    398    405 ar
   302    399    400 2
   303    399    401 am
   304    401    402 1
   305    402    403 2
   306    402    404 2
   307    404    405 1
   308    417    418 1
   309    417    419 1
   310    417    420 1
   311    420    421 1
   312    421    422 1
   313    422    423 1
   314    422    424 1
   315    423    427 1
   316    424    425 1
   317    424    426 1
   318    426    427 1
   319    427    428 1
   320    428    429 ar
   321    428    437 ar
   322    429    430 ar
   323    430    431 ar
   324    431    432 ar
   325    431    437 ar
   326    432    433 1
   327    432    434 ar
   328    434    435 ar
   329    435    436 ar
   330    436    437 ar
   331    449    450 1
   332    449    451 1
   333    449    452 1
   334    452    453 1
   335    453    454 1
   336    454    455 1
   337    454    456 1
   338    455    459 1
   339    456    457 1
   340    456    458 1
   341    458    459 1
   342    459    460 1
   343    460    461 ar
   344    460    469 ar
   345    461    462 ar
   346    462    463 ar
   347    463    464 ar
   348    463    469 ar
   349    464    465 1
   350    464    466 ar
   351    466    467 ar
   352    467    468 ar
   353    468    469 ar
   354    481    482 1
   355    481    483 1
   356    481    484 1
   357    484    485 1
   358    485    486 1
   359    486    487 1
   360    486    488 1
   361    487    491 1
   362    488    489 1
   363    488    490 1
   364    490    491 1
   365    491    492 1
   366    492    493 am
   367    492    500 1
   368    493    494 2
   369    493    495 am
   370    495    496 am
   371    496    497 2
   372    496    498 1
   373    498    499 1
   374    498    500 2
   375    513    514 1
   376    513    515 1
   377    513    516 1
   378    516    517 1
   379    517    518 1
   380    518    519 1
   381    518    520 1
   382    519    523 1
   383    520    521 1
   384    520    522 1
   385    522    523 1
   386    523    524 1
   387    524    525 am
   388    524    532 1
   389    525    526 2
   390    525    527 am
   391    527    528 am
   392    528    529 2
   393    528    530 1
   394    530    531 1
   395    530    532 2
   396    545    546 1
   397    545    547 1
   398    545    548 1
   399    548    549 1
   400    549    550 1
   401    550    551 1
   402    550    552 1
   403    551    555 1
   404    552    553 1
   405    552    554 1
   406    554    555 1
   407    555    556 1
   408    556    557 am
   409    556    563 1
   410    557    558 2
   411    557    559 1
   412    559    560 2
   413    560    561 2
   414    560    562 2
   415    562    563 2
   416    575    576 1
   417    575    577 1
   418    575    578 1
   419    578    579 1
   420    579    580 1
   421    580    581 1
   422    580    582 1
   423    581    585 1
   424    582    583 1
   425    582    584 1
   426    584    585 1
   427    585    586 1
   428    586    587 ar
   429    586    595 ar
   430    587    588 ar
   431    588    589 ar
   432    589    590 ar
   433    589    595 ar
   434    590    591 1
   435    590    592 ar
   436    592    593 ar
   437    593    594 ar
   438    594    595 ar
   439    607    608 1
   440    607    609 1
   441    607    610 1
   442    610    611 1
   443    611    612 1
   444    612    613 1
   445    612    614 1
   446    613    617 1
   447    614    615 1
   448    614    616 1
   449    616    617 1
   450    617    618 1
   451    618    619 am
   452    618    625 1
   453    619    620 2
   454    619    621 1
   455    621    622 2
   456    622    623 2
   457    622    624 2
   458    624    625 2
   459     23      5 1
   460     24      5 1
   461     25      6 1
   462     26      8 1
   463     27     10 1
   464     28     10 1
   465     29     11 1
   466     30     13 1
   467     31     18 1
   468     54     38 1
   469     55     38 1
   470     56     39 1
   471     57     41 1
   472     58     43 1
   473     59     43 1
   474     60     44 1
   475     61     48 1
   476     62     53 1
   477     88     70 1
   478     89     70 1
   479     90     71 1
   480     91     73 1
   481     92     75 1
   482     93     75 1
   483     94     76 1
   484     95     78 1
   485     96     83 1
   486    120    103 1
   487    121    103 1
   488    122    104 1
   489    123    106 1
   490    124    108 1
   491    125    108 1
   492    126    109 1
   493    127    111 1
   494    128    117 1
   495    152    135 1
   496    153    135 1
   497    154    136 1
   498    155    138 1
   499    156    140 1
   500    157    140 1
   501    158    141 1
   502    159    143 1
   503    160    149 1
   504    183    167 1
   505    184    167 1
   506    185    168 1
   507    186    170 1
   508    187    172 1
   509    188    172 1
   510    189    173 1
   511    190    177 1
   512    191    182 1
   513    215    199 1
   514    216    199 1
   515    217    200 1
   516    218    202 1
   517    219    204 1
   518    220    204 1
   519    221    205 1
   520    222    209 1
   521    223    214 1
   522    246    231 1
   523    247    231 1
   524    248    232 1
   525    249    234 1
   526    250    236 1
   527    251    236 1
   528    252    237 1
   529    253    244 1
   530    254    245 1
   531    278    261 1
   532    279    261 1
   533    280    262 1
   534    281    264 1
   535    282    266 1
   536    283    266 1
   537    284    267 1
   538    285    269 1
   539    286    275 1
   540    308    293 1
   541    309    293 1
   542    310    294 1
   543    311    296 1
   544    312    298 1
   545    313    298 1
   546    314    299 1
   547    315    306 1
   548    316    307 1
   549    341    323 1
   550    342    323 1
   551    343    324 1
   552    344    326 1
   553    345    328 1
   554    346    328 1
   555    347    329 1
   556    348    331 1
   557    349    336 1
   558    372    356 1
   559    373    356 1
   560    374    357 1
   561    375    359 1
   562    376    361 1
   563    377    361 1
   564    378    362 1
   565    379    366 1
   566    380    371 1
   567    406    388 1
   568    407    388 1
   569    408    389 1
   570    409    391 1
   571    410    393 1
   572    411    393 1
   573    412    394 1
   574    413    396 1
   575    414    401 1
   576    438    421 1
   577    439    421 1
   578    440    422 1
   579    441    424 1
   580    442    426 1
   581    443    426 1
   582    444    427 1
   583    445    429 1
   584    446    435 1
   585    470    453 1
   586    471    453 1
   587    472    454 1
   588    473    456 1
   589    474    458 1
   590    475    458 1
   591    476    459 1
   592    477    461 1
   593    478    467 1
   594    501    485 1
   595    502    485 1
   596    503    486 1
   597    504    488 1
   598    505    490 1
   599    506    490 1
   600    507    491 1
   601    508    495 1
   602    509    500 1
   603    533    517 1
   604    534    517 1
   605    535    518 1
   606    536    520 1
   607    537    522 1
   608    538    522 1
   609    539    523 1
   610    540    527 1
   611    541    532 1
   612    564    549 1
   613    565    549 1
   614    566    550 1
   615    567    552 1
   616    568    554 1
   617    569    554 1
   618    570    555 1
   619    571    562 1
   620    572    563 1
   621    596    579 1
   622    597    579 1
   623    598    580 1
   624    599    582 1
   625    600    584 1
   626    601    584 1
   627    602    585 1
   628    603    587 1
   629    604    593 1
   630    626    611 1
   631    627    611 1
   632    628    612 1
   633    629    614 1
   634    630    616 1
   635    631    616 1
   636    632    617 1
   637    633    624 1
   638    634    625 1
   639     32     20 1
   640     33     20 1
   641     97     85 1
   642     98     85 1
   643    255    243 1
   644    256    243 1
   645    317    305 1
   646    318    305 1
   647    350    338 1
   648    351    338 1
   649    415    403 1
   650    416    403 1
   651    573    561 1
   652    574    561 1
   653    635    623 1
   654    636    623 1
   655    129    115 1
   656    130    115 1
   657    161    147 1
   658    162    147 1
   659    287    273 1
   660    288    273 1
   661    447    433 1
   662    448    433 1
   663    479    465 1
   664    480    465 1
   665    605    591 1
   666    606    591 1
   667     63     52 1
   668     64     52 1
   669     65     52 1
   670    192    181 1
   671    193    181 1
   672    194    181 1
   673    224    213 1
   674    225    213 1
   675    226    213 1
   676    381    370 1
   677    382    370 1
   678    383    370 1
   679    510    499 1
   680    511    499 1
   681    512    499 1
   682    542    531 1
   683    543    531 1
   684    544    531 1
   685    297    637 1
   686    319   1251 1
   687    645    670 1
   688    678    702 1
   689    710    735 1
   690    743    767 1
   691    775    799 1
   692    807    831 1
   693    839    863 1
   694    871    893 1
   695    901    925 1
   696    963    988 1
   697    996   1020 1
   698   1028   1053 1
   699   1061   1085 1
   700   1093   1117 1
   701   1125   1149 1
   702   1157   1181 1
   703   1189   1211 1
   704   1219   1243 1
   705    637    638 1
   706    637    639 1
   707    637    640 1
   708    640    641 1
   709    641    642 1
   710    642    643 1
   711    642    644 1
   712    643    647 1
   713    644    645 1
   714    644    646 1
   715    646    647 1
   716    647    648 1
   717    648    649 ar
   718    648    658 ar
   719    649    650 ar
   720    650    651 ar
   721    651    652 1
   722    651    658 ar
   723    652    653 2
   724    652    654 am
   725    654    655 1
   726    655    656 2
   727    655    657 2
   728    657    658 1
   729    670    671 1
   730    670    672 1
   731    670    673 1
   732    673    674 1
   733    674    675 1
   734    675    676 1
   735    675    677 1
   736    676    680 1
   737    677    678 1
   738    677    679 1
   739    679    680 1
   740    680    681 1
   741    681    682 am
   742    681    689 1
   743    682    683 2
   744    682    684 am
   745    684    685 am
   746    685    686 2
   747    685    687 1
   748    687    688 1
   749    687    689 2
   750    702    703 1
   751    702    704 1
   752    702    705 1
   753    705    706 1
   754    706    707 1
   755    707    708 1
   756    707    709 1
   757    708    712 1
   758    709    710 1
   759    709    711 1
   760    711    712 1
   761    712    713 1
   762    713    714 ar
   763    713    723 ar
   764    714    715 ar
   765    715    716 ar
   766    716    717 1
   767    716    723 ar
   768    717    718 2
   769    717    719 am
   770    719    720 1
   771    720    721 2
   772    720    722 2
   773    722    723 1
   774    735    736 1
   775    735    737 1
   776    735    738 1
   777    738    739 1
   778    739    740 1
   779    740    741 1
   780    740    742 1
   781    741    745 1
   782    742    743 1
   783    742    744 1
   784    744    745 1
   785    745    746 1
   786    746    747 ar
   787    746    755 ar
   788    747    748 ar
   789    748    749 ar
   790    749    750 ar
   791    749    755 ar
   792    750    751 1
   793    750    752 ar
   794    752    753 ar
   795    753    754 ar
   796    754    755 ar
   797    767    768 1
   798    767    769 1
   799    767    770 1
   800    770    771 1
   801    771    772 1
   802    772    773 1
   803    772    774 1
   804    773    777 1
   805    774    775 1
   806    774    776 1
   807    776    777 1
   808    777    778 1
   809    778    779 ar
   810    778    787 ar
   811    779    780 ar
   812    780    781 ar
   813    781    782 ar
   814    781    787 ar
   815    782    783 1
   816    782    784 ar
   817    784    785 ar
   818    785    786 ar
   819    786    787 ar
   820    799    800 1
   821    799    801 1
   822    799    802 1
   823    802    803 1
   824    803    804 1
   825    804    805 1
   826    804    806 1
   827    805    809 1
   828    806    807 1
   829    806    808 1
   830    808    809 1
   831    809    810 1
   832    810    811 am
   833    810    818 1
   834    811    812 2
   835    811    813 am
   836    813    814 am
   837    814    815 2
   838    814    816 1
   839    816    817 1
   840    816    818 2
   841    831    832 1
   842    831    833 1
   843    831    834 1
   844    834    835 1
   845    835    836 1
   846    836    837 1
   847    836    838 1
   848    837    841 1
   849    838    839 1
   850    838    840 1
   851    840    841 1
   852    841    842 1
   853    842    843 am
   854    842    850 1
   855    843    844 2
   856    843    845 am
   857    845    846 am
   858    846    847 2
   859    846    848 1
   860    848    849 1
   861    848    850 2
   862    863    864 1
   863    863    865 1
   864    863    866 1
   865    866    867 1
   866    867    868 1
   867    868    869 1
   868    868    870 1
   869    869    873 1
   870    870    871 1
   871    870    872 1
   872    872    873 1
   873    873    874 1
   874    874    875 am
   875    874    881 1
   876    875    876 2
   877    875    877 1
   878    877    878 2
   879    878    879 2
   880    878    880 2
   881    880    881 2
   882    893    894 1
   883    893    895 1
   884    893    896 1
   885    896    897 1
   886    897    898 1
   887    898    899 1
   888    898    900 1
   889    899    903 1
   890    900    901 1
   891    900    902 1
   892    902    903 1
   893    903    904 1
   894    904    905 ar
   895    904    913 ar
   896    905    906 ar
   897    906    907 ar
   898    907    908 ar
   899    907    913 ar
   900    908    909 1
   901    908    910 ar
   902    910    911 ar
   903    911    912 ar
   904    912    913 ar
   905    925    926 1
   906    925    927 1
   907    925    928 1
   908    928    929 1
   909    929    930 1
   910    930    931 1
   911    930    932 1
   912    931    935 1
   913    932    933 1
   914    932    934 1
   915    934    935 1
   916    935    936 1
   917    936    937 am
   918    936    943 1
   919    937    938 2
   920    937    939 1
   921    939    940 2
   922    940    941 2
   923    940    942 2
   924    942    943 2
   925    955    956 1
   926    955    957 1
   927    955    958 1
   928    958    959 1
   929    959    960 1
   930    960    961 1
   931    960    962 1
   932    961    965 1
   933    962    963 1
   934    962    964 1
   935    964    965 1
   936    965    966 1
   937    966    967 ar
   938    966    976 ar
   939    967    968 ar
   940    968    969 ar
   941    969    970 1
   942    969    976 ar
   943    970    971 2
   944    970    972 am
   945    972    973 1
   946    973    974 2
   947    973    975 2
   948    975    976 1
   949    988    989 1
   950    988    990 1
   951    988    991 1
   952    991    992 1
   953    992    993 1
   954    993    994 1
   955    993    995 1
   956    994    998 1
   957    995    996 1
   958    995    997 1
   959    997    998 1
   960    998    999 1
   961    999   1000 am
   962    999   1007 1
   963   1000   1001 2
   964   1000   1002 am
   965   1002   1003 am
   966   1003   1004 2
   967   1003   1005 1
   968   1005   1006 1
   969   1005   1007 2
   970   1020   1021 1
   971   1020   1022 1
   972   1020   1023 1
   973   1023   1024 1
   974   1024   1025 1
   975   1025   1026 1
   976   1025   1027 1
   977   1026   1030 1
   978   1027   1028 1
   979   1027   1029 1
   980   1029   1030 1
   981   1030   1031 1
   982   1031   1032 ar
   983   1031   1041 ar
   984   1032   1033 ar
   985   1033   1034 ar
   986   1034   1035 1
   987   1034   1041 ar
   988   1035   1036 2
   989   1035   1037 am
   990   1037   1038 1
   991   1038   1039 2
   992   1038   1040 2
   993   1040   1041 1
   994   1053   1054 1
   995   1053   1055 1
   996   1053   1056 1
   997   1056   1057 1
   998   1057   1058 1
   999   1058   1059 1
  1000   1058   1060 1
  1001   1059   1063 1
  1002   1060   1061 1
  1003   1060   1062 1
  1004   1062   1063 1
  1005   1063   1064 1
  1006   1064   1065 ar
  1007   1064   1073 ar
  1008   1065   1066 ar
  1009   1066   1067 ar
  1010   1067   1068 ar
  1011   1067   1073 ar
  1012   1068   1069 1
  1013   1068   1070 ar
  1014   1070   1071 ar
  1015   1071   1072 ar
  1016   1072   1073 ar
  1017   1085   1086 1
  1018   1085   1087 1
  1019   1085   1088 1
  1020   1088   1089 1
  1021   1089   1090 1
  1022   1090   1091 1
  1023   1090   1092 1
  1024   1091   1095 1
  1025   1092   1093 1
  1026   1092   1094 1
  1027   1094   1095 1
  1028   1095   1096 1
  1029   1096   1097 ar
  1030   1096   1105 ar
  1031   1097   1098 ar
  1032   1098   1099 ar
  1033   1099   1100 ar
  1034   1099   1105 ar
  1035   1100   1101 1
  1036   1100   1102 ar
  1037   1102   1103 ar
  1038   1103   1104 ar
  1039   1104   1105 ar
  1040   1117   1118 1
  1041   1117   1119 1
  1042   1117   1120 1
  1043   1120   1121 1
  1044   1121   1122 1
  1045   1122   1123 1
  1046   1122   1124 1
  1047   1123   1127 1
  1048   1124   1125 1
  1049   1124   1126 1
  1050   1126   1127 1
  1051   1127   1128 1
  1052   1128   1129 am
  1053   1128   1136 1
  1054   1129   1130 2
  1055   1129   1131 am
  1056   1131   1132 am
  1057   1132   1133 2
  1058   1132   1134 1
  1059   1134   1135 1
  1060   1134   1136 2
  1061   1149   1150 1
  1062   1149   1151 1
  1063   1149   1152 1
  1064   1152   1153 1
  1065   1153   1154 1
  1066   1154   1155 1
  1067   1154   1156 1
  1068   1155   1159 1
  1069   1156   1157 1
  1070   1156   1158 1
  1071   1158   1159 1
  1072   1159   1160 1
  1073   1160   1161 am
  1074   1160   1168 1
  1075   1161   1162 2
  1076   1161   1163 am
  1077   1163   1164 am
  1078   1164   1165 2
  1079   1164   1166 1
  1080   1166   1167 1
  1081   1166   1168 2
  1082   1181   1182 1
  1083   1181   1183 1
  1084   1181   1184 1
  1085   1184   1185 1
  1086   1185   1186 1
  1087   1186   1187 1
  1088   1186   1188 1
  1089   1187   1191 1
  1090   1188   1189 1
  1091   1188   1190 1
  1092   1190   1191 1
  1093   1191   1192 1
  1094   1192   1193 am
  1095   1192   1199 1
  1096   1193   1194 2
  1097   1193   1195 1
  1098   1195   1196 2
  1099   1196   1197 2
  1100   1196   1198 2
  1101   1198   1199 2
  1102   1211   1212 1
  1103   1211   1213 1
  1104   1211   1214 1
  1105   1214   1215 1
  1106   1215   1216 1
  1107   1216   1217 1
  1108   1216   1218 1
  1109   1217   1221 1
  1110   1218   1219 1
  1111   1218   1220 1
  1112   1220   1221 1
  1113   1221   1222 1
  1114   1222   1223 ar
  1115   1222   1231 ar
  1116   1223   1224 ar
  1117   1224   1225 ar
  1118   1225   1226 ar
  1119   1225   1231 ar
  1120   1226   1227 1
  1121   1226   1228 ar
  1122   1228   1229 ar
  1123   1229   1230 ar
  1124   1230   1231 ar
  1125   1243   1244 1
  1126   1243   1245 1
  1127   1243   1246 1
  1128   1246   1247 1
  1129   1247   1248 1
  1130   1248   1249 1
  1131   1248   1250 1
  1132   1249   1253 1
  1133   1250   1251 1
  1134   1250   1252 1
  1135   1252   1253 1
  1136   1253   1254 1
  1137   1254   1255 am
  1138   1254   1261 1
  1139   1255   1256 2
  1140   1255   1257 1
  1141   1257   1258 2
  1142   1258   1259 2
  1143   1258   1260 2
  1144   1260   1261 2
  1145    659    641 1
  1146    660    641 1
  1147    661    642 1
  1148    662    644 1
  1149    663    646 1
  1150    664    646 1
  1151    665    647 1
  1152    666    649 1
  1153    667    654 1
  1154    690    674 1
  1155    691    674 1
  1156    692    675 1
  1157    693    677 1
  1158    694    679 1
  1159    695    679 1
  1160    696    680 1
  1161    697    684 1
  1162    698    689 1
  1163    724    706 1
  1164    725    706 1
  1165    726    707 1
  1166    727    709 1
  1167    728    711 1
  1168    729    711 1
  1169    730    712 1
  1170    731    714 1
  1171    732    719 1
  1172    756    739 1
  1173    757    739 1
  1174    758    740 1
  1175    759    742 1
  1176    760    744 1
  1177    761    744 1
  1178    762    745 1
  1179    763    747 1
  1180    764    753 1
  1181    788    771 1
  1182    789    771 1
  1183    790    772 1
  1184    791    774 1
  1185    792    776 1
  1186    793    776 1
  1187    794    777 1
  1188    795    779 1
  1189    796    785 1
  1190    819    803 1
  1191    820    803 1
  1192    821    804 1
  1193    822    806 1
  1194    823    808 1
  1195    824    808 1
  1196    825    809 1
  1197    826    813 1
  1198    827    818 1
  1199    851    835 1
  1200    852    835 1
  1201    853    836 1
  1202    854    838 1
  1203    855    840 1
  1204    856    840 1
  1205    857    841 1
  1206    858    845 1
  1207    859    850 1
  1208    882    867 1
  1209    883    867 1
  1210    884    868 1
  1211    885    870 1
  1212    886    872 1
  1213    887    872 1
  1214    888    873 1
  1215    889    880 1
  1216    890    881 1
  1217    914    897 1
  1218    915    897 1
  1219    916    898 1
  1220    917    900 1
  1221    918    902 1
  1222    919    902 1
  1223    920    903 1
  1224    921    905 1
  1225    922    911 1
  1226    944    929 1
  1227    945    929 1
  1228    946    930 1
  1229    947    932 1
  1230    948    934 1
  1231    949    934 1
  1232    950    935 1
  1233    951    942 1
  1234    952    943 1
  1235    977    959 1
  1236    978    959 1
  1237    979    960 1
  1238    980    962 1
  1239    981    964 1
  1240    982    964 1
  1241    983    965 1
  1242    984    967 1
  1243    985    972 1
  1244   1008    992 1
  1245   1009    992 1
  1246   1010    993 1
  1247   1011    995 1
  1248   1012    997 1
  1249   1013    997 1
  1250   1014    998 1
  1251   1015   1002 1
  1252   1016   1007 1
  1253   1042   1024 1
  1254   1043   1024 1
  1255   1044   1025 1
  1256   1045   1027 1
  1257   1046   1029 1
  1258   1047   1029 1
  1259   1048   1030 1
  1260   1049   1032 1
  1261   1050   1037 1
  1262   1074   1057 1
  1263   1075   1057 1
  1264   1076   1058 1
  1265   1077   1060 1
  1266   1078   1062 1
  1267   1079   1062 1
  1268   1080   1063 1
  1269   1081   1065 1
  1270   1082   1071 1
  1271   1106   1089 1
  1272   1107   1089 1
  1273   1108   1090 1
  1274   1109   1092 1
  1275   1110   1094 1
  1276   1111   1094 1
  1277   1112   1095 1
  1278   1113   1097 1
  1279   1114   1103 1
  1280   1137   1121 1
  1281   1138   1121 1
  1282   1139   1122 1
  1283   1140   1124 1
  1284   1141   1126 1
  1285   1142   1126 1
  1286   1143   1127 1
  1287   1144   1131 1
  1288   1145   1136 1
  1289   1169   1153 1
  1290   1170   1153 1
  1291   1171   1154 1
  1292   1172   1156 1
  1293   1173   1158 1
  1294   1174   1158 1
  1295   1175   1159 1
  1296   1176   1163 1
  1297   1177   1168 1
  1298   1200   1185 1
  1299   1201   1185 1
  1300   1202   1186 1
  1301   1203   1188 1
  1302   1204   1190 1
  1303   1205   1190 1
  1304   1206   1191 1
  1305   1207   1198 1
  1306   1208   1199 1
  1307   1232   1215 1
  1308   1233   1215 1
  1309   1234   1216 1
  1310   1235   1218 1
  1311   1236   1220 1
  1312   1237   1220 1
  1313   1238   1221 1
  1314   1239   1223 1
  1315   1240   1229 1
  1316   1262   1247 1
  1317   1263   1247 1
  1318   1264   1248 1
  1319   1265   1250 1
  1320   1266   1252 1
  1321   1267   1252 1
  1322   1268   1253 1
  1323   1269   1260 1
  1324   1270   1261 1
  1325    668    656 1
  1326    669    656 1
  1327    733    721 1
  1328    734    721 1
  1329    891    879 1
  1330    892    879 1
  1331    953    941 1
  1332    954    941 1
  1333    986    974 1
  1334    987    974 1
  1335   1051   1039 1
  1336   1052   1039 1
  1337   1209   1197 1
  1338   1210   1197 1
  1339   1271   1259 1
  1340   1272   1259 1
  1341    765    751 1
  1342    766    751 1
  1343    797    783 1
  1344    798    783 1
  1345    923    909 1
  1346    924    909 1
  1347   1083   1069 1
  1348   1084   1069 1
  1349   1115   1101 1
  1350   1116   1101 1
  1351   1241   1227 1
  1352   1242   1227 1
  1353    699    688 1
  1354    700    688 1
  1355    701    688 1
  1356    828    817 1
  1357    829    817 1
  1358    830    817 1
  1359    860    849 1
  1360    861    849 1
  1361    862    849 1
  1362   1017   1006 1
  1363   1018   1006 1
  1364   1019   1006 1
  1365   1146   1135 1
  1366   1147   1135 1
  1367   1148   1135 1
  1368   1178   1167 1
  1369   1179   1167 1
  1370   1180   1167 1
  1371    933   1273 1
  1372    955   1887 1
  1373   1281   1306 1
  1374   1314   1338 1
  1375   1346   1371 1
  1376   1379   1403 1
  1377   1411   1435 1
  1378   1443   1467 1
  1379   1475   1499 1
  1380   1507   1529 1
  1381   1537   1561 1
  1382   1599   1624 1
  1383   1632   1656 1
  1384   1664   1689 1
  1385   1697   1721 1
  1386   1729   1753 1
  1387   1761   1785 1
  1388   1793   1817 1
  1389   1825   1847 1
  1390   1855   1879 1
  1391   1273   1274 1
  1392   1273   1275 1
  1393   1273   1276 1
  1394   1276   1277 1
  1395   1277   1278 1
  1396   1278   1279 1
  1397   1278   1280 1
  1398   1279   1283 1
  1399   1280   1281 1
  1400   1280   1282 1
  1401   1282   1283 1
  1402   1283   1284 1
  1403   1284   1285 ar
  1404   1284   1294 ar
  1405   1285   1286 ar
  1406   1286   1287 ar
  1407   1287   1288 1
  1408   1287   1294 ar
  1409   1288   1289 2
  1410   1288   1290 am
  1411   1290   1291 1
  1412   1291   1292 2
  1413   1291   1293 2
  1414   1293   1294 1
  1415   1306   1307 1
  1416   1306   1308 1
  1417   1306   1309 1
  1418   1309   1310 1
  1419   1310   1311 1
  1420   1311   1312 1
  1421   1311   1313 1
  1422   1312   1316 1
  1423   1313   1314 1
  1424   1313   1315 1
  1425   1315   1316 1
  1426   1316   1317 1
  1427   1317   1318 am
  1428   1317   1325 1
  1429   1318   1319 2
  1430   1318   1320 am
  1431   1320   1321 am
  1432   1321   1322 2
  1433   1321   1323 1
  1434   1323   1324 1
  1435   1323   1325 2
  1436   1338   1339 1
  1437   1338   1340 1
  1438   1338   1341 1
  1439   1341   1342 1
  1440   1342   1343 1
  1441   1343   1344 1
  1442   1343   1345 1
  1443   1344   1348 1
  1444   1345   1346 1
  1445   1345   1347 1
  1446   1347   1348 1
  1447   1348   1349 1
  1448   1349   1350 ar
  1449   1349   1359 ar
  1450   1350   1351 ar
  1451   1351   1352 ar
  1452   1352   1353 1
  1453   1352   1359 ar
  1454   1353   1354 2
  1455   1353   1355 am
  1456   1355   1356 1
  1457   1356   1357 2
  1458   1356   1358 2
  1459   1358   1359 1
  1460   1371   1372 1
  1461   1371   1373 1
  1462   1371   1374 1
  1463   1374   1375 1
  1464   1375   1376 1
  1465   1376   1377 1
  1466   1376   1378 1
  1467   1377   1381 1
  1468   1378   1379 1
  1469   1378   1380 1
  1470   1380   1381 1
  1471   1381   1382 1
  1472   1382   1383 ar
  1473   1382   1391 ar
  1474   1383   1384 ar
  1475   1384   1385 ar
  1476   1385   1386 ar
  1477   1385   1391 ar
  1478   1386   1387 1
  1479   1386   1388 ar
  1480   1388   1389 ar
  1481   1389   1390 ar
  1482   1390   1391 ar
  1483   1403   1404 1
  1484   1403   1405 1
  1485   1403   1406 1
  1486   1406   1407 1
  1487   1407   1408 1
  1488   1408   1409 1
  1489   1408   1410 1
  1490   1409   1413 1
  1491   1410   1411 1
  1492   1410   1412 1
  1493   1412   1413 1
  1494   1413   1414 1
  1495   1414   1415 ar
  1496   1414   1423 ar
  1497   1415   1416 ar
  1498   1416   1417 ar
  1499   1417   1418 ar
  1500   1417   1423 ar
  1501   1418   1419 1
  1502   1418   1420 ar
  1503   1420   1421 ar
  1504   1421   1422 ar
  1505   1422   1423 ar
  1506   1435   1436 1
  1507   1435   1437 1
  1508   1435   1438 1
  1509   1438   1439 1
  1510   1439   1440 1
  1511   1440   1441 1
  1512   1440   1442 1
  1513   1441   1445 1
  1514   1442   1443 1
  1515   1442   1444 1
  1516   1444   1445 1
  1517   1445   1446 1
  1518   1446   1447 am
  1519   1446   1454 1
  1520   1447   1448 2
  1521   1447   1449 am
  1522   1449   1450 am
  1523   1450   1451 2
  1524   1450   1452 1
  1525   1452   1453 1
  1526   1452   1454 2
  1527   1467   1468 1
  1528   1467   1469 1
  1529   1467   1470 1
  1530   1470   1471 1
  1531   1471   1472 1
  1532   1472   1473 1
  1533   1472   1474 1
  1534   1473   1477 1
  1535   1474   1475 1
  1536   1474   1476 1
  1537   1476   1477 1
  1538   1477   1478 1
  1539   1478   1479 am
  1540   1478   1486 1
  1541   1479   1480 2
  1542   1479   1481 am
  1543   1481   1482 am
  1544   1482   1483 2
  1545   1482   1484 1
  1546   1484   1485 1
  1547   1484   1486 2
  1548   1499   1500 1
  1549   1499   1501 1
  1550   1499   1502 1
  1551   1502   1503 1
  1552   1503   1504 1
  1553   1504   1505 1
  1554   1504   1506 1
  1555   1505   1509 1
  1556   1506   1507 1
  1557   1506   1508 1
  1558   1508   1509 1
  1559   1509   1510 1
  1560   1510   1511 am
  1561   1510   1517 1
  1562   1511   1512 2
  1563   1511   1513 1
  1564   1513   1514 2
  1565   1514   1515 2
  1566   1514   1516 2
  1567   1516   1517 2
  1568   1529   1530 1
  1569   1529   1531 1
  1570   1529   1532 1
  1571   1532   1533 1
  1572   1533   1534 1
  1573   1534   1535 1
  1574   1534   1536 1
  1575   1535   1539 1
  1576   1536   1537 1
  1577   1536   1538 1
  1578   1538   1539 1
  1579   1539   1540 1
  1580   1540   1541 ar
  1581   1540   1549 ar
  1582   1541   1542 ar
  1583   1542   1543 ar
  1584   1543   1544 ar
  1585   1543   1549 ar
  1586   1544   1545 1
  1587   1544   1546 ar
  1588   1546   1547 ar
  1589   1547   1548 ar
  1590   1548   1549 ar
  1591   1561   1562 1
  1592   1561   1563 1
  1593   1561   1564 1
  1594   1564   1565 1
  1595   1565   1566 1
  1596   1566   1567 1
  1597   1566   1568 1
  1598   1567   1571 1
  1599   1568   1569 1
  1600   1568   1570 1
  1601   1570   1571 1
  1602   1571   1572 1
  1603   1572   1573 am
  1604   1572   1579 1
  1605   1573   1574 2
  1606   1573   1575 1
  1607   1575   1576 2
  1608   1576   1577 2
  1609   1576   1578 2
  1610   1578   1579 2
  1611   1591   1592 1
  1612   1591   1593 1
  1613   1591   1594 1
  1614   1594   1595 1
  1615   1595   1596 1
  1616   1596   1597 1
  1617   1596   1598 1
  1618   1597   1601 1
  1619   1598   1599 1
  1620   1598   1600 1
  1621   1600   1601 1
  1622   1601   1602 1
  1623   1602   1603 ar
  1624   1602   1612 ar
  1625   1603   1604 ar
  1626   1604   1605 ar
  1627   1605   1606 1
  1628   1605   1612 ar
  1629   1606   1607 2
  1630   1606   1608 am
  1631   1608   1609 1
  1632   1609   1610 2
  1633   1609   1611 2
  1634   1611   1612 1
  1635   1624   1625 1
  1636   1624   1626 1
  1637   1624   1627 1
  1638   1627   1628 1
  1639   1628   1629 1
  1640   1629   1630 1
  1641   1629   1631 1
  1642   1630   1634 1
  1643   1631   1632 1
  1644   1631   1633 1
  1645   1633   1634 1
  1646   1634   1635 1
  1647   1635   1636 am
  1648   1635   1643 1
  1649   1636   1637 2
  1650   1636   1638 am
  1651   1638   1639 am
  1652   1639   1640 2
  1653   1639   1641 1
  1654   1641   1642 1
  1655   1641   1643 2
  1656   1656   1657 1
  1657   1656   1658 1
  1658   1656   1659 1
  1659   1659   1660 1
  1660   1660   1661 1
  1661   1661   1662 1
  1662   1661   1663 1
  1663   1662   1666 1
  1664   1663   1664 1
  1665   1663   1665 1
  1666   1665   1666 1
  1667   1666   1667 1
  1668   1667   1668 ar
  1669   1667   1677 ar
  1670   1668   1669 ar
  1671   1669   1670 ar
  1672   1670   1671 1
  1673   1670   1677 ar
  1674   1671   1672 2
  1675   1671   1673 am
  1676   1673   1674 1
  1677   1674   1675 2
  1678   1674   1676 2
  1679   1676   1677 1
  1680   1689   1690 1
  1681   1689   1691 1
  1682   1689   1692 1
  1683   1692   1693 1
  1684   1693   1694 1
  1685   1694   1695 1
  1686   1694   1696 1
  1687   1695   1699 1
  1688   1696   1697 1
  1689   1696   1698 1
  1690   1698   1699 1
  1691   1699   1700 1
  1692   1700   1701 ar
  1693   1700   1709 ar
  1694   1701   1702 ar
  1695   1702   1703 ar
  1696   1703   1704 ar
  1697   1703   1709 ar
  1698   1704   1705 1
  1699   1704   1706 ar
  1700   1706   1707 ar
  1701   1707   1708 ar
  1702   1708   1709 ar
  1703   1721   1722 1
  1704   1721   1723 1
  1705   1721   1724 1
  1706   1724   1725 1
  1707   1725   1726 1
  1708   1726   1727 1
  1709   1726   1728 1
  1710   1727   1731 1
  1711   1728   1729 1
  1712   1728   1730 1
  1713   1730   1731 1
  1714   1731   1732 1
  1715   1732   1733 ar
  1716   1732   1741 ar
  1717   1733   1734 ar
  1718   1734   1735 ar
  1719   1735   1736 ar
  1720   1735   1741 ar
  1721   1736   1737 1
  1722   1736   1738 ar
  1723   1738   1739 ar
  1724   1739   1740 ar
  1725   1740   1741 ar
  1726   1753   1754 1
  1727   1753   1755 1
  1728   1753   1756 1
  1729   1756   1757 1
  1730   1757   1758 1
  1731   1758   1759 1
  1732   1758   1760 1
  1733   1759   1763 1
  1734   1760   1761 1
  1735   1760   1762 1
  1736   1762   1763 1
  1737   1763   1764 1
  1738   1764   1765 am
  1739   1764   1772 1
  1740   1765   1766 2
  1741   1765   1767 am
  1742   1767   1768 am
  1743   1768   1769 2
  1744   1768   1770 1
  1745   1770   1771 1
  1746   1770   1772 2
  1747   1785   1786 1
  1748   1785   1787 1
  1749   1785   1788 1
  1750   1788   1789 1
  1751   1789   1790 1
  1752   1790   1791 1
  1753   1790   1792 1
  1754   1791   1795 1
  1755   1792   1793 1
  1756   1792   1794 1
  1757   1794   1795 1
  1758   1795   1796 1
  1759   1796   1797 am
  1760   1796   1804 1
  1761   1797   1798 2
  1762   1797   1799 am
  1763   1799   1800 am
  1764   1800   1801 2
  1765   1800   1802 1
  1766   1802   1803 1
  1767   1802   1804 2
  1768   1817   1818 1
  1769   1817   1819 1
  1770   1817   1820 1
  1771   1820   1821 1
  1772   1821   1822 1
  1773   1822   1823 1
  1774   1822   1824 1
  1775   1823   1827 1
  1776   1824   1825 1
  1777   1824   1826 1
  1778   1826   1827 1
  1779   1827   1828 1
  1780   1828   1829 am
  1781   1828   1835 1
  1782   1829   1830 2
  1783   1829   1831 1
  1784   1831   1832 2
  1785   1832   1833 2
  1786   1832   1834 2
  1787   1834   1835 2
  1788   1847   1848 1
  1789   1847   1849 1
  1790   1847   1850 1
  1791   1850   1851 1
  1792   1851   1852 1
  1793   1852   1853 1
  1794   1852   1854 1
  1795   1853   1857 1
  1796   1854   1855 1
  1797   1854   1856 1
  1798   1856   1857 1
  1799   1857   1858 1
  1800   1858   1859 ar
  1801   1858   1867 ar
  1802   1859   1860 ar
  1803   1860   1861 ar
  1804   1861   1862 ar
  1805   1861   1867 ar
  1806   1862   1863 1
  1807   1862   1864 ar
  1808   1864   1865 ar
  1809   1865   1866 ar
  1810   1866   1867 ar
  1811   1879   1880 1
  1812   1879   1881 1
  1813   1879   1882 1
  1814   1882   1883 1
  1815   1883   1884 1
  1816   1884   1885 1
  1817   1884   1886 1
  1818   1885   1889 1
  1819   1886   1887 1
  1820   1886   1888 1
  1821   1888   1889 1
  1822   1889   1890 1
  1823   1890   1891 am
  1824   1890   1897 1
  1825   1891   1892 2
  1826   1891   1893 1
  1827   1893   1894 2
  1828   1894   1895 2
  1829   1894   1896 2
  1830   1896   1897 2
  1831   1295   1277 1
  1832   1296   1277 1
  1833   1297   1278 1
  1834   1298   1280 1
  1835   1299   1282 1
  1836   1300   1282 1
  1837   1301   1283 1
  1838   1302   1285 1
  1839   1303   1290 1
  1840   1326   1310 1
  1841   1327   1310 1
  1842   1328   1311 1
  1843   1329   1313 1
  1844   1330   1315 1
  1845   1331   1315 1
  1846   1332   1316 1
  1847   1333   1320 1
  1848   1334   1325 1
  1849   1360   1342 1
  1850   1361   1342 1
  1851   1362   1343 1
  1852   1363   1345 1
  1853   1364   1347 1
  1854   1365   1347 1
  1855   1366   1348 1
  1856   1367   1350 1
  1857   1368   1355 1
  1858   1392   1375 1
  1859   1393   1375 1
  1860   1394   1376 1
  1861   1395   1378 1
  1862   1396   1380 1
  1863   1397   1380 1
  1864   1398   1381 1
  1865   1399   1383 1
  1866   1400   1389 1
  1867   1424   1407 1
  1868   1425   1407 1
  1869   1426   1408 1
  1870   1427   1410 1
  1871   1428   1412 1
  1872   1429   1412 1
  1873   1430   1413 1
  1874   1431   1415 1
  1875   1432   1421 1
  1876   1455   1439 1
  1877   1456   1439 1
  1878   1457   1440 1
  1879   1458   1442 1
  1880   1459   1444 1
  1881   1460   1444 1
  1882   1461   1445 1
  1883   1462   1449 1
  1884   1463   1454 1
  1885   1487   1471 1
  1886   1488   1471 1
  1887   1489   1472 1
  1888   1490   1474 1
  1889   1491   1476 1
  1890   1492   1476 1
  1891   1493   1477 1
  1892   1494   1481 1
  1893   1495   1486 1
  1894   1518   1503 1
  1895   1519   1503 1
  1896   1520   1504 1
  1897   1521   1506 1
  1898   1522   1508 1
  1899   1523   1508 1
  1900   1524   1509 1
  1901   1525   1516 1
  1902   1526   1517 1
  1903   1550   1533 1
  1904   1551   1533 1
  1905   1552   1534 1
  1906   1553   1536 1
  1907   1554   1538 1
  1908   1555   1538 1
  1909   1556   1539 1
  1910   1557   1541 1
  1911   1558   1547 1
  1912   1580   1565 1
  1913   1581   1565 1
  1914   1582   1566 1
  1915   1583   1568 1
  1916   1584   1570 1
  1917   1585   1570 1
  1918   1586   1571 1
  1919   1587   1578 1
  1920   1588   1579 1
  1921   1613   1595 1
  1922   1614   1595 1
  1923   1615   1596 1
  1924   1616   1598 1
  1925   1617   1600 1
  1926   1618   1600 1
  1927   1619   1601 1
  1928   1620   1603 1
  1929   1621   1608 1
  1930   1644   1628 1
  1931   1645   1628 1
  1932   1646   1629 1
  1933   1647   1631 1
  1934   1648   1633 1
  1935   1649   1633 1
  1936   1650   1634 1
  1937   1651   1638 1
  1938   1652   1643 1
  1939   1678   1660 1
  1940   1679   1660 1
  1941   1680   1661 1
  1942   1681   1663 1
  1943   1682   1665 1
  1944   1683   1665 1
  1945   1684   1666 1
  1946   1685   1668 1
  1947   1686   1673 1
  1948   1710   1693 1
  1949   1711   1693 1
  1950   1712   1694 1
  1951   1713   1696 1
  1952   1714   1698 1
  1953   1715   1698 1
  1954   1716   1699 1
  1955   1717   1701 1
  1956   1718   1707 1
  1957   1742   1725 1
  1958   1743   1725 1
  1959   1744   1726 1
  1960   1745   1728 1
  1961   1746   1730 1
  1962   1747   1730 1
  1963   1748   1731 1
  1964   1749   1733 1
  1965   1750   1739 1
  1966   1773   1757 1
  1967   1774   1757 1
  1968   1775   1758 1
  1969   1776   1760 1
  1970   1777   1762 1
  1971   1778   1762 1
  1972   1779   1763 1
  1973   1780   1767 1
  1974   1781   1772 1
  1975   1805   1789 1
  1976   1806   1789 1
  1977   1807   1790 1
  1978   1808   1792 1
  1979   1809   1794 1
  1980   1810   1794 1
  1981   1811   1795 1
  1982   1812   1799 1
  1983   1813   1804 1
  1984   1836   1821 1
  1985   1837   1821 1
  1986   1838   1822 1
  1987   1839   1824 1
  1988   1840   1826 1
  1989   1841   1826 1
  1990   1842   1827 1
  1991   1843   1834 1
  1992   1844   1835 1
  1993   1868   1851 1
  1994   1869   1851 1
  1995   1870   1852 1
  1996   1871   1854 1
  1997   1872   1856 1
  1998   1873   1856 1
  1999   1874   1857 1
  2000   1875   1859 1
  2001   1876   1865 1
  2002   1898   1883 1
  2003   1899   1883 1
  2004   1900   1884 1
  2005   1901   1886 1
  2006   1902   1888 1
  2007   1903   1888 1
  2008   1904   1889 1
  2009   1905   1896 1
  2010   1906   1897 1
  2011   1304   1292 1
  2012   1305   1292 1
  2013   1369   1357 1
  2014   1370   1357 1
  2015   1527   1515 1
  2016   1528   1515 1
  2017   1589   1577 1
  2018   1590   1577 1
  2019   1622   1610 1
  2020   1623   1610 1
  2021   1687   1675 1
  2022   1688   1675 1
  2023   1845   1833 1
  2024   1846   1833 1
  2025   1907   1895 1
  2026   1908   1895 1
  2027   1401   1387 1
  2028   1402   1387 1
  2029   1433   1419 1
  2030   1434   1419 1
  2031   1559   1545 1
  2032   1560   1545 1
  2033   1719   1705 1
  2034   1720   1705 1
  2035   1751   1737 1
  2036   1752   1737 1
  2037   1877   1863 1
  2038   1878   1863 1
  2039   1335   1324 1
  2040   1336   1324 1
  2041   1337   1324 1
  2042   1464   1453 1
  2043   1465   1453 1
  2044   1466   1453 1
  2045   1496   1485 1
  2046   1497   1485 1
  2047   1498   1485 1
  2048   1653   1642 1
  2049   1654   1642 1
  2050   1655   1642 1
  2051   1782   1771 1
  2052   1783   1771 1
  2053   1784   1771 1
  2054   1814   1803 1
  2055   1815   1803 1
  2056   1816   1803 1
  2057   1569   1909 1
  2058   1591   2141 1
  2059   1917   1942 1
  2060   1950   1974 1
  2061   1982   2007 1
  2062   2047   2071 1
  2063   2079   2101 1
  2064   2109   2133 1
  2065   1909   1910 1
  2066   1909   1911 1
  2067   1909   1912 1
  2068   1912   1913 1
  2069   1913   1914 1
  2070   1914   1915 1
  2071   1914   1916 1
  2072   1915   1919 1
  2073   1916   1917 1
  2074   1916   1918 1
  2075   1918   1919 1
  2076   1919   1920 1
  2077   1920   1921 ar
  2078   1920   1930 ar
  2079   1921   1922 ar
  2080   1922   1923 ar
  2081   1923   1924 1
  2082   1923   1930 ar
  2083   1924   1925 2
  2084   1924   1926 am
  2085   1926   1927 1
  2086   1927   1928 2
  2087   1927   1929 2
  2088   1929   1930 1
  2089   1942   1943 1
  2090   1942   1944 1
  2091   1942   1945 1
  2092   1945   1946 1
  2093   1946   1947 1
  2094   1947   1948 1
  2095   1947   1949 1
  2096   1948   1952 1
  2097   1949   1950 1
  2098   1949   1951 1
  2099   1951   1952 1
  2100   1952   1953 1
  2101   1953   1954 am
  2102   1953   1961 1
  2103   1954   1955 2
  2104   1954   1956 am
  2105   1956   1957 am
  2106   1957   1958 2
  2107   1957   1959 1
  2108   1959   1960 1
  2109   1959   1961 2
  2110   1974   1975 1
  2111   1974   1976 1
  2112   1974   1977 1
  2113   1977   1978 1
  2114   1978   1979 1
  2115   1979   1980 1
  2116   1979   1981 1
  2117   1980   1984 1
  2118   1981   1982 1
  2119   1981   1983 1
  2120   1983   1984 1
  2121   1984   1985 1
  2122   1985   1986 ar
  2123   1985   1995 ar
  2124   1986   1987 ar
  2125   1987   1988 ar
  2126   1988   1989 1
  2127   1988   1995 ar
  2128   1989   1990 2
  2129   1989   1991 am
  2130   1991   1992 1
  2131   1992   1993 2
  2132   1992   1994 2
  2133   1994   1995 1
  2134   2007   2008 1
  2135   2007   2009 1
  2136   2007   2010 1
  2137   2010   2011 1
  2138   2011   2012 1
  2139   2012   2013 1
  2140   2012   2014 1
  2141   2013   2017 1
  2142   2014   2015 1
  2143   2014   2016 1
  2144   2016   2017 1
  2145   2017   2018 1
  2146   2018   2019 ar
  2147   2018   2027 ar
  2148   2019   2020 ar
  2149   2020   2021 ar
  2150   2021   2022 ar
  2151   2021   2027 ar
  2152   2022   2023 1
  2153   2022   2024 ar
  2154   2024   2025 ar
  2155   2025   2026 ar
  2156   2026   2027 ar
  2157   2039   2040 1
  2158   2039   2041 1
  2159   2039   2042 1
  2160   2042   2043 1
  2161   2043   2044 1
  2162   2044   2045 1
  2163   2044   2046 1
  2164   2045   2049 1
  2165   2046   2047 1
  2166   2046   2048 1
  2167   2048   2049 1
  2168   2049   2050 1
  2169   2050   2051 am
  2170   2050   2058 1
  2171   2051   2052 2
  2172   2051   2053 am
  2173   2053   2054 am
  2174   2054   2055 2
  2175   2054   2056 1
  2176   2056   2057 1
  2177   2056   2058 2
  2178   2071   2072 1
  2179   2071   2073 1
  2180   2071   2074 1
  2181   2074   2075 1
  2182   2075   2076 1
  2183   2076   2077 1
  2184   2076   2078 1
  2185   2077   2081 1
  2186   2078   2079 1
  2187   2078   2080 1
  2188   2080   2081 1
  2189   2081   2082 1
  2190   2082   2083 am
  2191   2082   2089 1
  2192   2083   2084 2
  2193   2083   2085 1
  2194   2085   2086 2
  2195   2086   2087 2
  2196   2086   2088 2
  2197   2088   2089 2
  2198   2101   2102 1
  2199   2101   2103 1
  2200   2101   2104 1
  2201   2104   2105 1
  2202   2105   2106 1
  2203   2106   2107 1
  2204   2106   2108 1
  2205   2107   2111 1
  2206   2108   2109 1
  2207   2108   2110 1
  2208   2110   2111 1
  2209   2111   2112 1
  2210   2112   2113 ar
  2211   2112   2121 ar
  2212   2113   2114 ar
  2213   2114   2115 ar
  2214   2115   2116 ar
  2215   2115   2121 ar
  2216   2116   2117 1
  2217   2116   2118 ar
  2218   2118   2119 ar
  2219   2119   2120 ar
  2220   2120   2121 ar
  2221   2133   2134 1
  2222   2133   2135 1
  2223   2133   2136 1
  2224   2136   2137 1
  2225   2137   2138 1
  2226   2138   2139 1
  2227   2138   2140 1
  2228   2139   2143 1
  2229   2140   2141 1
  2230   2140   2142 1
  2231   2142   2143 1
  2232   2143   2144 1
  2233   2144   2145 am
  2234   2144   2151 1
  2235   2145   2146 2
  2236   2145   2147 1
  2237   2147   2148 2
  2238   2148   2149 2
  2239   2148   2150 2
  2240   2150   2151 2
  2241   1931   1913 1
  2242   1932   1913 1
  2243   1933   1914 1
  2244   1934   1916 1
  2245   1935   1918 1
  2246   1936   1918 1
  2247   1937   1919 1
  2248   1938   1921 1
  2249   1939   1926 1
  2250   1962   1946 1
  2251   1963   1946 1
  2252   1964   1947 1
  2253   1965   1949 1
  2254   1966   1951 1
  2255   1967   1951 1
  2256   1968   1952 1
  2257   1969   1956 1
  2258   1970   1961 1
  2259   1996   1978 1
  2260   1997   1978 1
  2261   1998   1979 1
  2262   1999   1981 1
  2263   2000   1983 1
  2264   2001   1983 1
  2265   2002   1984 1
  2266   2003   1986 1
  2267   2004   1991 1
  2268   2028   2011 1
  2269   2029   2011 1
  2270   2030   2012 1
  2271   2031   2014 1
  2272   2032   2016 1
  2273   2033   2016 1
  2274   2034   2017 1
  2275   2035   2019 1
  2276   2036   2025 1
  2277   2059   2043 1
  2278   2060   2043 1
  2279   2061   2044 1
  2280   2062   2046 1
  2281   2063   2048 1
  2282   2064   2048 1
  2283   2065   2049 1
  2284   2066   2053 1
  2285   2067   2058 1
  2286   2090   2075 1
  2287   2091   2075 1
  2288   2092   2076 1
  2289   2093   2078 1
  2290   2094   2080 1
  2291   2095   2080 1
  2292   2096   2081 1
  2293   2097   2088 1
  2294   2098   2089 1
  2295   2122   2105 1
  2296   2123   2105 1
  2297   2124   2106 1
  2298   2125   2108 1
  2299   2126   2110 1
  2300   2127   2110 1
  2301   2128   2111 1
  2302   2129   2113 1
  2303   2130   2119 1
  2304   2152   2137 1
  2305   2153   2137 1
  2306   2154   2138 1
  2307   2155   2140 1
  2308   2156   2142 1
  2309   2157   2142 1
  2310   2158   2143 1
  2311   2159   2150 1
  2312   2160   2151 1
  2313   1940   1928 1
  2314   1941   1928 1
  2315   2005   1993 1
  2316   2006   1993 1
  2317   2099   2087 1
  2318   2100   2087 1
  2319   2161   2149 1
  2320   2162   2149 1
  2321   2037   2023 1
  2322   2038   2023 1
  2323   2131   2117 1
  2324   2132   2117 1
  2325   1971   1960 1
  2326   1972   1960 1
  2327   1973   1960 1
  2328   2068   2057 1
  2329   2069   2057 1
  2330   2070   2057 1
@<TRIPOS>MOLECULE
dna-seg-04-bp33
2100 2263 1 0 0
BIOPOLYMER
NO_CHARGES


@<TRIPOS>ATOM
      1 P         -8.6146     5.5487   410.7479 P.3      135 DA      0.0000
      2 OP1       -9.9448     5.7959   410.0809 O.co2    135 DA      0.0000
      3 OP2       -8.1067     6.6593   411.5788 O.co2    135 DA      0.0000
      4 O5'       -8.7143     4.0476   411.2788 O.3      135 DA      0.0000
      5 C5'       -9.0786     2.9417   410.4544 C.3      135 DA      0.0000
      6 C4'       -8.3636     1.7080   410.9767 C.3      135 DA      0.0000
      7 O4'       -6.9772     1.8986   411.0049 O.3      135 DA      0.0000
      8 C3'       -8.7725     1.1882   412.3440 C.3      135 DA      0.0000
      9 O3'       -9.3442    -0.1175   412.2662 O.3      135 DA      0.0000
     10 C2'       -7.4859     1.2882   413.1728 C.3      135 DA      0.0000
     11 C1'       -6.3908     1.2489   412.1790 C.3      135 DA      0.0000
     12 N9        -5.1150     1.9372   412.4470 N.ar     135 DA      0.0000
     13 C8        -4.8422     3.2787   412.5622 C.ar     135 DA      0.0000
     14 N7        -3.5709     3.5554   412.7315 N.ar     135 DA      0.0000
     15 C5        -2.9528     2.3096   412.6945 C.ar     135 DA      0.0000
     16 C6        -1.5868     1.9254   412.8150 C.ar     135 DA      0.0000
     17 N6        -0.5678     2.7537   413.0066 N.pl3    135 DA      0.0000
     18 N1        -1.3388     0.5791   412.7168 N.ar     135 DA      0.0000
     19 C2        -2.3618    -0.3040   412.5277 C.ar     135 DA      0.0000
     20 N3        -3.6535    -0.0141   412.4198 N.ar     135 DA      0.0000
     21 C4        -3.8816     1.3114   412.5117 C.ar     135 DA      0.0000
     22 H5'       -8.7784     3.1342   409.4244 H        135 DA      0.0000
     23 H5''     -10.1569     2.7885   410.5004 H        135 DA      0.0000
     24 H4'       -8.5570     0.9063   410.2640 H        135 DA      0.0000
     25 H3'       -9.5126     1.8673   412.7672 H        135 DA      0.0000
     26 H2'       -7.4622     2.2229   413.7330 H        135 DA      0.0000
     27 H2''      -7.4086     0.4395   413.8524 H        135 DA      0.0000
     28 H1'       -6.1804     0.2081   411.9329 H        135 DA      0.0000
     29 H8        -5.6075     4.0394   412.5174 H        135 DA      0.0000
     30 H2        -2.0931    -1.3478   412.4585 H        135 DA      0.0000
     31 H61       -0.6971     3.7009   413.3328 H        135 DA      0.0000
     32 H62        0.3691     2.4258   412.8198 H        135 DA      0.0000
     33 P        -10.5287    -0.6893   413.2224 P.3      136 DT      0.0000
     34 OP1      -11.5563    -1.4845   412.4251 O.co2    136 DT      0.0000
     35 OP2      -11.0793     0.3690   414.0430 O.co2    136 DT      0.0000
     36 O5'       -9.7464    -1.8855   414.0361 O.3      136 DT      0.0000
     37 C5'       -8.8474    -2.6088   413.0910 C.3      136 DT      0.0000
     38 C4'       -7.5818    -2.8342   413.8788 C.3      136 DT      0.0000
     39 O4'       -6.8183    -1.6645   414.0707 O.3      136 DT      0.0000
     40 C3'       -7.8651    -3.3673   415.2953 C.3      136 DT      0.0000
     41 O3'       -7.7090    -4.7743   415.2970 O.3      136 DT      0.0000
     42 C2'       -6.8879    -2.6120   416.1926 C.3      136 DT      0.0000
     43 C1'       -5.9416    -2.0168   415.2280 C.3      136 DT      0.0000
     44 N1        -5.1970    -0.8148   415.5677 N.am     136 DT      0.0000
     45 C2        -3.8188    -0.9471   415.7057 C.2      136 DT      0.0000
     46 O2        -3.3017    -2.0533   415.6176 O.2      136 DT      0.0000
     47 N3        -3.0864     0.1730   415.9597 N.am     136 DT      0.0000
     48 C4        -3.6498     1.4111   416.0798 C.2      136 DT      0.0000
     49 O4        -2.8995     2.4066   416.3350 O.2      136 DT      0.0000
     50 C5        -5.0686     1.5265   415.9082 C.2      136 DT      0.0000
     51 C7        -5.7364     2.8708   415.9958 C.3      136 DT      0.0000
     52 C6        -5.7860     0.4189   415.6525 C.2      136 DT      0.0000
     53 H5'       -9.2886    -3.5588   412.7894 H        136 DT      0.0000
     54 H5''      -8.6434    -1.9917   412.2160 H        136 DT      0.0000
     55 H4'       -6.9697    -3.5646   413.3496 H        136 DT      0.0000
     56 H3'       -8.8869    -3.1157   415.5797 H        136 DT      0.0000
     57 H2'       -7.4000    -1.8394   416.7660 H        136 DT      0.0000
     58 H2''      -6.3702    -3.3019   416.8590 H        136 DT      0.0000
     59 H1'       -5.2371    -2.7856   414.9106 H        136 DT      0.0000
     60 H3        -2.0857     0.0842   416.0634 H        136 DT      0.0000
     61 H6        -6.8532     0.5038   415.5103 H        136 DT      0.0000
     62 H71       -4.9892     3.6351   416.2088 H        136 DT      0.0000
     63 H72       -6.2257     3.0955   415.0480 H        136 DT      0.0000
     64 H73       -6.4791     2.8563   416.7936 H        136 DT      0.0000
     65 P         -8.0797    -5.7978   416.4036 P.3      137 DT      0.0000
     66 OP1       -8.2703    -7.2097   415.7916 O.co2    137 DT      0.0000
     67 OP2       -9.3283    -5.2966   417.0336 O.co2    137 DT      0.0000
     68 O5'       -6.7476    -5.9353   417.2860 O.3      137 DT      0.0000
     69 C5'       -5.6800    -6.6167   416.5742 C.3      137 DT      0.0000
     70 C4'       -4.3875    -6.3160   417.2504 C.3      137 DT      0.0000
     71 O4'       -4.0338    -4.9387   417.2270 O.3      137 DT      0.0000
     72 C3'       -4.3194    -6.7655   418.7170 C.3      137 DT      0.0000
     73 O3'       -3.0749    -7.3849   418.9810 O.3      137 DT      0.0000
     74 C2'       -4.3947    -5.4068   419.4533 C.3      137 DT      0.0000
     75 C1'       -3.4516    -4.6388   418.5498 C.3      137 DT      0.0000
     76 N1        -3.4833    -3.2188   418.8475 N.am     137 DT      0.0000
     77 C2        -2.2836    -2.5281   418.9023 C.2      137 DT      0.0000
     78 O2        -1.2327    -3.1426   418.7138 O.2      137 DT      0.0000
     79 N3        -2.3208    -1.1882   419.1682 N.am     137 DT      0.0000
     80 C4        -3.4894    -0.5218   419.3752 C.2      137 DT      0.0000
     81 O4        -3.4469     0.7219   419.5985 O.2      137 DT      0.0000
     82 C5        -4.7179    -1.2417   419.3101 C.2      137 DT      0.0000
     83 C7        -6.0472    -0.5771   419.5200 C.3      137 DT      0.0000
     84 C6        -4.6629    -2.5570   419.0490 C.2      137 DT      0.0000
     85 H5'       -5.8588    -7.6918   416.5866 H        137 DT      0.0000
     86 H5''      -5.6442    -6.2638   415.5435 H        137 DT      0.0000
     87 H4'       -3.6094    -6.8571   416.7119 H        137 DT      0.0000
     88 H3'       -5.1559    -7.4132   418.9794 H        137 DT      0.0000
     89 H2'       -5.4016    -4.9896   419.4521 H        137 DT      0.0000
     90 H2''      -3.9988    -5.4827   420.4660 H        137 DT      0.0000
     91 H1'       -2.4367    -5.0292   418.6254 H        137 DT      0.0000
     92 H3        -1.4519    -0.6752   419.2126 H        137 DT      0.0000
     93 H6        -5.5864    -3.1146   418.9959 H        137 DT      0.0000
     94 H71       -5.8962     0.4839   419.7190 H        137 DT      0.0000
     95 H72       -6.6576    -0.6954   418.6248 H        137 DT      0.0000
     96 H73       -6.5536    -1.0374   420.3684 H        137 DT      0.0000
     97 P         -2.5929    -8.7491   419.5890 P.3      138 DC      0.0000
     98 OP1       -2.0141    -9.6572   418.5210 O.co2    138 DC      0.0000
     99 OP2       -3.7550    -9.2809   420.3239 O.co2    138 DC      0.0000
    100 O5'       -1.3245    -8.1415   420.4150 O.3      138 DC      0.0000
    101 C5'       -0.5780    -7.3845   419.3927 C.3      138 DC      0.0000
    102 C4'        0.5788    -6.7263   420.0892 C.3      138 DC      0.0000
    103 O4'        0.3570    -5.3724   420.3362 O.3      138 DC      0.0000
    104 C3'        1.0260    -7.4019   421.3807 C.3      138 DC      0.0000
    105 O3'        2.4002    -7.7570   421.3010 O.3      138 DC      0.0000
    106 C2'        0.6040    -6.3706   422.4295 C.3      138 DC      0.0000
    107 C1'        0.6867    -5.0702   421.7330 C.3      138 DC      0.0000
    108 N1        -0.3317    -4.0689   422.0652 N.am     138 DC      0.0000
    109 C2         0.1398    -2.7832   422.3210 C.2      138 DC      0.0000
    110 O2         1.3486    -2.5309   422.3254 O.2      138 DC      0.0000
    111 N3        -0.7904    -1.8111   422.5948 N.2      138 DC      0.0000
    112 C4        -2.1272    -2.0817   422.5849 C.2      138 DC      0.0000
    113 N4        -2.9480    -1.0745   422.8617 N.pl3    138 DC      0.0000
    114 C5        -2.5913    -3.3862   422.3069 C.2      138 DC      0.0000
    115 C6        -1.6651    -4.3303   422.0421 C.2      138 DC      0.0000
    116 H5'       -0.2133    -8.0603   418.6191 H        138 DC      0.0000
    117 H5''      -1.2230    -6.6264   418.9485 H        138 DC      0.0000
    118 H4'        1.4241    -6.7809   419.4033 H        138 DC      0.0000
    119 H3'        0.4377    -8.3082   421.5240 H        138 DC      0.0000
    120 H2'       -0.4146    -6.5612   422.7674 H        138 DC      0.0000
    121 H2''       1.2916    -6.3897   423.2750 H        138 DC      0.0000
    122 H1'        1.6884    -4.6482   421.8140 H        138 DC      0.0000
    123 H5        -3.6460    -3.6187   422.3063 H        138 DC      0.0000
    124 H6        -1.9951    -5.3305   421.8030 H        138 DC      0.0000
    125 H41       -2.5735    -0.1579   423.0609 H        138 DC      0.0000
    126 H42       -3.9466    -1.2253   422.8730 H        138 DC      0.0000
    127 P          3.1756    -8.8179   422.2531 P.3      139 DA      0.0000
    128 OP1        4.3551    -9.3461   421.4593 O.co2    139 DA      0.0000
    129 OP2        2.2243    -9.8938   422.5986 O.co2    139 DA      0.0000
    130 O5'        3.6429    -7.9193   423.5501 O.3      139 DA      0.0000
    131 C5'        4.3880    -6.6984   423.2548 C.3      139 DA      0.0000
    132 C4'        4.6583    -5.9355   424.5101 C.3      139 DA      0.0000
    133 O4'        3.7783    -4.8337   424.7523 O.3      139 DA      0.0000
    134 C3'        4.5378    -6.7398   425.8154 C.3      139 DA      0.0000
    135 O3'        5.2447    -6.0450   426.8453 O.3      139 DA      0.0000
    136 C2'        3.0143    -6.6399   426.0300 C.3      139 DA      0.0000
    137 C1'        2.9114    -5.1219   425.8467 C.3      139 DA      0.0000
    138 N9         1.5112    -4.7451   425.7524 N.ar     139 DA      0.0000
    139 C8         0.3874    -5.5155   425.6365 C.ar     139 DA      0.0000
    140 N7        -0.7500    -4.8440   425.6179 N.ar     139 DA      0.0000
    141 C5        -0.3388    -3.5229   425.7255 C.ar     139 DA      0.0000
    142 C6        -1.0604    -2.3042   425.7600 C.ar     139 DA      0.0000
    143 N6        -2.3752    -2.2094   425.6747 N.pl3    139 DA      0.0000
    144 N1        -0.3152    -1.1677   425.8926 N.ar     139 DA      0.0000
    145 C2         1.0510    -1.2195   425.9727 C.ar     139 DA      0.0000
    146 N3         1.7970    -2.3213   425.9429 N.ar     139 DA      0.0000
    147 C4         1.0408    -3.4397   425.8199 C.ar     139 DA      0.0000
    148 H5'        5.3352    -6.9611   422.7837 H        139 DA      0.0000
    149 H5''       3.8067    -6.0770   422.5736 H        139 DA      0.0000
    150 H4'        5.6741    -5.5448   424.4512 H        139 DA      0.0000
    151 H3'        4.8751    -7.7700   425.7017 H        139 DA      0.0000
    152 H2'        2.4486    -7.1916   425.2792 H        139 DA      0.0000
    153 H2''       2.7337    -6.9392   427.0399 H        139 DA      0.0000
    154 H1'        3.3264    -4.6483   426.7363 H        139 DA      0.0000
    155 H8         0.4268    -6.5925   425.5655 H        139 DA      0.0000
    156 H2         1.5717    -0.2782   426.0692 H        139 DA      0.0000
    157 H61       -3.0405    -1.4711   425.8548 H        139 DA      0.0000
    158 H62       -2.8116    -3.0642   425.3600 H        139 DA      0.0000
    159 P          6.8348    -6.1553   426.9858 P.3      140 DC      0.0000
    160 OP1        7.5032    -6.6287   425.7407 O.co2    140 DC      0.0000
    161 OP2        6.9864    -7.1170   428.1286 O.co2    140 DC      0.0000
    162 O5'        7.2802    -4.6599   427.2689 O.3      140 DC      0.0000
    163 C5'        7.4485    -3.7011   426.1812 C.3      140 DC      0.0000
    164 C4'        7.1296    -2.3778   426.8862 C.3      140 DC      0.0000
    165 O4'        5.7558    -2.3884   427.1981 O.3      140 DC      0.0000
    166 C3'        7.8878    -2.1798   428.1961 C.3      140 DC      0.0000
    167 O3'        8.5712    -0.9077   428.2640 O.3      140 DC      0.0000
    168 C2'        6.8108    -2.3493   429.2783 C.3      140 DC      0.0000
    169 C1'        5.5973    -1.8538   428.6021 C.3      140 DC      0.0000
    170 N1         4.2704    -2.3521   428.9549 N.am     140 DC      0.0000
    171 C2         3.2537    -1.3993   428.9280 C.2      140 DC      0.0000
    172 O2         3.4659    -0.2111   428.7211 O.2      140 DC      0.0000
    173 N3         1.9882    -1.8287   429.1811 N.2      140 DC      0.0000
    174 C4         1.6945    -3.1307   429.4145 C.2      140 DC      0.0000
    175 N4         0.4173    -3.4286   429.6454 N.pl3    140 DC      0.0000
    176 C5         2.7390    -4.0957   429.4211 C.2      140 DC      0.0000
    177 C6         3.9852    -3.6647   429.1716 C.2      140 DC      0.0000
    178 H5'        8.4682    -3.7111   425.7964 H        140 DC      0.0000
    179 H5''       6.7328    -3.8947   425.3822 H        140 DC      0.0000
    180 H4'        7.3430    -1.5471   426.2135 H        140 DC      0.0000
    181 H3'        8.6214    -2.9790   428.3020 H        140 DC      0.0000
    182 H2'        6.7023    -3.3952   429.5653 H        140 DC      0.0000
    183 H2''       7.0423    -1.7352   430.1485 H        140 DC      0.0000
    184 H1'        5.5958    -0.7638   428.5888 H        140 DC      0.0000
    185 H5         2.5367    -5.1379   429.6196 H        140 DC      0.0000
    186 H6         4.7896    -4.3847   429.1419 H        140 DC      0.0000
    187 H41       -0.2813    -2.6993   429.6344 H        140 DC      0.0000
    188 H42        0.1473    -4.3839   429.8316 H        140 DC      0.0000
    189 P         -8.1898     2.2301   431.2235 P.3      140 DG      0.0000
    190 OP1       -9.6387     2.5553   431.4022 O.co2    140 DG      0.0000
    191 OP2       -7.9413     1.1904   430.1387 O.co2    140 DG      0.0000
    192 O5'       -7.3393     3.6240   431.0162 O.3      140 DG      0.0000
    193 C5'       -6.4994     4.1177   432.1120 C.3      140 DG      0.0000
    194 C4'       -5.2374     4.6979   431.4777 C.3      140 DG      0.0000
    195 O4'       -4.2127     3.7465   431.3819 O.3      140 DG      0.0000
    196 C3'       -5.4369     5.2568   430.0714 C.3      140 DG      0.0000
    197 O3'       -4.7071     6.4767   429.8044 O.3      140 DG      0.0000
    198 C2'       -4.9591     4.1048   429.1691 C.3      140 DG      0.0000
    199 C1'       -3.8048     3.5586   429.9929 C.3      140 DG      0.0000
    200 N9        -3.5888     2.1275   429.7196 N.ar     140 DG      0.0000
    201 C8        -4.5369     1.1445   429.5630 C.ar     140 DG      0.0000
    202 N7        -4.0389    -0.0436   429.3446 N.ar     140 DG      0.0000
    203 C5        -2.6650     0.1656   429.3693 C.ar     140 DG      0.0000
    204 C6        -1.5767    -0.7336   429.2129 C.2      140 DG      0.0000
    205 O6        -1.6483    -1.9551   429.0161 O.2      140 DG      0.0000
    206 N1        -0.3396    -0.1442   429.2998 N.am     140 DG      0.0000
    207 C2        -0.1750     1.1832   429.5205 C.2      140 DG      0.0000
    208 N2         1.0827     1.6115   429.5838 N.pl3    140 DG      0.0000
    209 N3        -1.1638     2.0716   429.6782 N.2      140 DG      0.0000
    210 C4        -2.3774     1.4926   429.5949 C.ar     140 DG      0.0000
    211 H5'       -7.0278     4.8909   432.6698 H        140 DG      0.0000
    212 H5''      -6.2358     3.2952   432.7769 H        140 DG      0.0000
    213 H4'       -4.8841     5.5090   432.1144 H        140 DG      0.0000
    214 H3'       -6.4996     5.4294   429.9009 H        140 DG      0.0000
    215 H2'       -5.7392     3.3570   429.0264 H        140 DG      0.0000
    216 H2''      -4.6057     4.4842   428.2104 H        140 DG      0.0000
    217 H1'       -2.8951     4.1229   429.7877 H        140 DG      0.0000
    218 H8        -5.5983     1.3369   429.6157 H        140 DG      0.0000
    219 H1         0.4813    -0.7231   429.1950 H        140 DG      0.0000
    220 H21        1.8449     0.9588   429.4687 H        140 DG      0.0000
    221 H22        1.2756     2.5894   429.7470 H        140 DG      0.0000
    222 P         -4.2631     6.6999   428.2809 P.3      139 DT      0.0000
    223 OP1       -4.1428     8.1482   427.8900 O.co2    139 DT      0.0000
    224 OP2       -5.3959     6.0465   427.5804 O.co2    139 DT      0.0000
    225 O5'       -2.8401     5.9750   428.1500 O.3      139 DT      0.0000
    226 C5'       -1.6565     6.7931   428.4177 C.3      139 DT      0.0000
    227 C4'       -0.4864     6.2035   427.6606 C.3      139 DT      0.0000
    228 O4'       -0.5038     4.7874   427.6333 O.3      139 DT      0.0000
    229 C3'       -0.4345     6.6441   426.2059 C.3      139 DT      0.0000
    230 O3'        0.9010     6.8827   425.7108 O.3      139 DT      0.0000
    231 C2'       -1.1071     5.4982   425.4830 C.3      139 DT      0.0000
    232 C1'       -0.5168     4.3339   426.2611 C.3      139 DT      0.0000
    233 N1        -1.4501     3.2066   426.1098 N.am     139 DT      0.0000
    234 C2        -0.8989     1.9338   426.2166 C.2      139 DT      0.0000
    235 O2         0.3044     1.7914   426.4064 O.2      139 DT      0.0000
    236 N3        -1.7516     0.8723   426.0964 N.am     139 DT      0.0000
    237 C4        -3.0862     1.0407   425.8789 C.2      139 DT      0.0000
    238 O4        -3.8024    -0.0102   425.7813 O.2      139 DT      0.0000
    239 C5        -3.6214     2.3562   425.7725 C.2      139 DT      0.0000
    240 C7        -5.0925     2.5538   425.5435 C.3      139 DT      0.0000
    241 C6        -2.7839     3.3893   425.8943 C.2      139 DT      0.0000
    242 H5'       -1.8329     7.8157   428.0839 H        139 DT      0.0000
    243 H5''      -1.4415     6.7883   429.4863 H        139 DT      0.0000
    244 H4'        0.4337     6.5250   428.1486 H        139 DT      0.0000
    245 H3'       -1.0312     7.5478   426.0819 H        139 DT      0.0000
    246 H2'       -2.1925     5.5403   425.5746 H        139 DT      0.0000
    247 H2''      -0.8037     5.4636   424.4366 H        139 DT      0.0000
    248 H1'        0.4835     4.0798   425.9105 H        139 DT      0.0000
    249 H3        -1.3816    -0.0646   426.1711 H        139 DT      0.0000
    250 H6        -3.1728     4.3941   425.8201 H        139 DT      0.0000
    251 H71       -5.5836     1.5832   425.4748 H        139 DT      0.0000
    252 H72       -5.5168     3.1174   426.3744 H        139 DT      0.0000
    253 H73       -5.2450     3.1047   424.6154 H        139 DT      0.0000
    254 P          0.8787     8.3484   424.9324 P.3      138 DG      0.0000
    255 OP1        1.2915     9.4897   425.8036 O.co2    138 DG      0.0000
    256 OP2       -0.5490     8.3593   424.5269 O.co2    138 DG      0.0000
    257 O5'        2.0341     8.1212   423.8516 O.3      138 DG      0.0000
    258 C5'        3.4174     8.2217   424.2751 C.3      138 DG      0.0000
    259 C4'        4.0576     6.9137   423.8273 C.3      138 DG      0.0000
    260 O4'        3.1808     5.8385   424.0980 O.3      138 DG      0.0000
    261 C3'        4.4049     6.8586   422.3396 C.3      138 DG      0.0000
    262 O3'        5.7756     6.5692   422.1311 O.3      138 DG      0.0000
    263 C2'        3.4283     5.8491   421.7629 C.3      138 DG      0.0000
    264 C1'        3.1229     4.9652   422.9490 C.3      138 DG      0.0000
    265 N9         1.7919     4.3646   422.8255 N.ar     138 DG      0.0000
    266 C8         0.5893     4.9929   422.6666 C.ar     138 DG      0.0000
    267 N7        -0.4290     4.1713   422.5885 N.ar     138 DG      0.0000
    268 C5         0.1430     2.9099   422.7261 C.ar     138 DG      0.0000
    269 C6        -0.4247     1.6085   422.7355 C.2      138 DG      0.0000
    270 O6        -1.6125     1.3178   422.6365 O.2      138 DG      0.0000
    271 N1         0.4792     0.5952   422.8845 N.am     138 DG      0.0000
    272 C2         1.8260     0.8319   423.0174 C.2      138 DG      0.0000
    273 N2         2.5964    -0.2478   423.1530 N.pl3    138 DG      0.0000
    274 N3         2.4235     2.0278   423.0217 N.2      138 DG      0.0000
    275 C4         1.5154     3.0219   422.8710 C.ar     138 DG      0.0000
    276 H5'        3.9047     9.0711   423.7963 H        138 DG      0.0000
    277 H5''       3.4736     8.3170   425.3594 H        138 DG      0.0000
    278 H4'        4.9728     6.7644   424.4003 H        138 DG      0.0000
    279 H3'        4.1897     7.8329   421.9010 H        138 DG      0.0000
    280 H2'        2.5267     6.3400   421.3965 H        138 DG      0.0000
    281 H2''       3.8999     5.2721   420.9673 H        138 DG      0.0000
    282 H1'        3.8779     4.1839   423.0361 H        138 DG      0.0000
    283 H8         0.4871     6.0666   422.6105 H        138 DG      0.0000
    284 H1         0.1468    -0.3584   422.8974 H        138 DG      0.0000
    285 H21        2.1804    -1.1682   423.1540 H        138 DG      0.0000
    286 H22        3.5960    -0.1454   423.2548 H        138 DG      0.0000
    287 P          6.5782     5.5192   421.2648 P.3      137 DA      0.0000
    288 OP1        7.7965     5.0111   422.0461 O.co2    137 DA      0.0000
    289 OP2        7.0055     6.2541   420.0721 O.co2    137 DA      0.0000
    290 O5'        5.5981     4.2296   421.0900 O.3      137 DA      0.0000
    291 C5'        5.6906     3.3156   422.2464 C.3      137 DA      0.0000
    292 C4'        6.2222     2.0061   421.7186 C.3      137 DA      0.0000
    293 O4'        5.2044     1.0632   421.4964 O.3      137 DA      0.0000
    294 C3'        6.9413     2.1519   420.3781 C.3      137 DA      0.0000
    295 O3'        8.1087     1.3690   420.3029 O.3      137 DA      0.0000
    296 C2'        5.8328     1.8639   419.3816 C.3      137 DA      0.0000
    297 C1'        4.8166     1.0255   420.1054 C.3      137 DA      0.0000
    298 N9         3.4464     1.5166   419.8799 N.ar     137 DA      0.0000
    299 C8         3.0097     2.8104   419.6935 C.ar     137 DA      0.0000
    300 N7         1.7161     2.9223   419.4976 N.ar     137 DA      0.0000
    301 C5         1.2667     1.6106   419.5845 C.ar     137 DA      0.0000
    302 C6        -0.0307     1.0571   419.4789 C.ar     137 DA      0.0000
    303 N6        -1.1207     1.7731   419.2664 N.pl3    137 DA      0.0000
    304 N1        -0.1160    -0.2963   419.6026 N.ar     137 DA      0.0000
    305 C2         0.9931    -1.0610   419.8271 C.ar     137 DA      0.0000
    306 N3         2.2382    -0.6036   419.9430 N.ar     137 DA      0.0000
    307 C4         2.3103     0.7426   419.8069 C.ar     137 DA      0.0000
    308 H5'        6.3705     3.7233   422.9945 H        137 DA      0.0000
    309 H5''       4.7030     3.1671   422.6831 H        137 DA      0.0000
    310 H4'        6.9228     1.5965   422.4463 H        137 DA      0.0000
    311 H3'        7.2306     3.1967   420.2650 H        137 DA      0.0000
    312 H2'        6.2290     1.3191   418.5247 H        137 DA      0.0000
    313 H2''       5.3777     2.7976   419.0510 H        137 DA      0.0000
    314 H1'        4.8868    -0.0015   419.7472 H        137 DA      0.0000
    315 H8         3.6754     3.6607   419.7074 H        137 DA      0.0000
    316 H2         0.8479    -2.1273   419.9184 H        137 DA      0.0000
    317 H61       -2.0255     1.4536   419.5818 H        137 DA      0.0000
    318 H62       -1.0479     2.6554   418.7802 H        137 DA      0.0000
    319 P          8.7289     0.5271   419.1184 P.3      136 DA      0.0000
    320 OP1        9.8876    -0.3730   419.6383 O.co2    136 DA      0.0000
    321 OP2        9.2911     1.5522   418.1847 O.co2    136 DA      0.0000
    322 O5'        7.6164    -0.4687   418.6157 O.3      136 DA      0.0000
    323 C5'        7.6151    -1.8374   419.0715 C.3      136 DA      0.0000
    324 C4'        6.4707    -2.5355   418.3696 C.3      136 DA      0.0000
    325 O4'        5.3114    -1.7615   418.2488 O.3      136 DA      0.0000
    326 C3'        6.8215    -3.0159   416.9620 C.3      136 DA      0.0000
    327 O3'        6.8111    -4.4556   416.9306 O.3      136 DA      0.0000
    328 C2'        5.8406    -2.2617   416.0625 C.3      136 DA      0.0000
    329 C1'        4.6641    -2.0254   416.9603 C.3      136 DA      0.0000
    330 N9         3.8406    -0.8586   416.6607 N.ar     136 DA      0.0000
    331 C8         4.2222     0.4528   416.4659 C.ar     136 DA      0.0000
    332 N7         3.2160     1.2729   416.2605 N.ar     136 DA      0.0000
    333 C5         2.0994     0.4632   416.3350 C.ar     136 DA      0.0000
    334 C6         0.7208     0.7425   416.2015 C.ar     136 DA      0.0000
    335 N6         0.2310     1.9543   415.9584 N.pl3    136 DA      0.0000
    336 N1        -0.1112    -0.3380   416.3504 N.ar     136 DA      0.0000
    337 C2         0.3556    -1.5760   416.6029 C.ar     136 DA      0.0000
    338 N3         1.6412    -1.9140   416.7418 N.ar     136 DA      0.0000
    339 C4         2.4584    -0.8474   416.5945 C.ar     136 DA      0.0000
    340 H5'        8.5596    -2.3178   418.8164 H        136 DA      0.0000
    341 H5''       7.4627    -1.8687   420.1503 H        136 DA      0.0000
    342 H4'        6.2148    -3.4155   418.9597 H        136 DA      0.0000
    343 H3'        7.8303    -2.6766   416.7270 H        136 DA      0.0000
    344 H2'        6.2683    -1.3185   415.7226 H        136 DA      0.0000
    345 H2''       5.5527    -2.8785   415.2112 H        136 DA      0.0000
    346 H1'        4.0463    -2.9214   417.0214 H        136 DA      0.0000
    347 H8         5.2528     0.7756   416.4809 H        136 DA      0.0000
    348 H2        -0.3740    -2.3660   416.7020 H        136 DA      0.0000
    349 H61       -0.7242     2.1007   416.2524 H        136 DA      0.0000
    350 H62        0.7757     2.6778   415.5111 H        136 DA      0.0000
    351 P          7.1396    -5.2079   415.5456 P.3      135 DT      0.0000
    352 OP1        7.4343    -6.6752   415.6038 O.co2    135 DT      0.0000
    353 OP2        8.2519    -4.3507   415.0330 O.co2    135 DT      0.0000
    354 O5'        5.6357    -5.0611   414.8425 O.3      135 DT      0.0000
    355 C5'        4.6148    -5.3138   415.8548 C.3      135 DT      0.0000
    356 C4'        3.3479    -5.7192   415.1719 C.3      135 DT      0.0000
    357 O4'        2.4492    -4.6658   414.9914 O.3      135 DT      0.0000
    358 C3'        3.5539    -6.3654   413.8106 C.3      135 DT      0.0000
    359 O3'        2.6261    -7.4242   413.5433 O.3      135 DT      0.0000
    360 C2'        3.4055    -5.1269   412.9173 C.3      135 DT      0.0000
    361 C1'        2.2257    -4.4271   413.5573 C.3      135 DT      0.0000
    362 N1         2.2782    -2.9710   413.3273 N.am     135 DT      0.0000
    363 C2         1.0745    -2.2993   413.2057 C.2      135 DT      0.0000
    364 O2         0.0014    -2.9035   413.2425 O.2      135 DT      0.0000
    365 N3         1.1109    -0.9416   413.0383 N.am     135 DT      0.0000
    366 C4         2.2834    -0.2541   412.9898 C.2      135 DT      0.0000
    367 O4         2.2235     0.9981   412.8043 O.2      135 DT      0.0000
    368 C5         3.5094    -0.9612   413.1382 C.2      135 DT      0.0000
    369 C7         4.8304    -0.2311   413.0861 C.3      135 DT      0.0000
    370 C6         3.4567    -2.2860   413.3112 C.2      135 DT      0.0000
    371 H5'        4.9460    -6.1139   416.5169 H        135 DT      0.0000
    372 H5''       4.4432    -4.4071   416.4348 H        135 DT      0.0000
    373 H4'        2.8587    -6.4561   415.8089 H        135 DT      0.0000
    374 H3'        4.5725    -6.7467   413.7386 H        135 DT      0.0000
    375 H2'        4.3004    -4.5055   412.9479 H        135 DT      0.0000
    376 H2''       3.1723    -5.4166   411.8927 H        135 DT      0.0000
    377 H1'        1.2788    -4.8514   413.2233 H        135 DT      0.0000
    378 H3         0.2416    -0.4353   412.9481 H        135 DT      0.0000
    379 H6         4.3792    -2.8320   413.4425 H        135 DT      0.0000
    380 H71        5.2459    -0.3020   412.0809 H        135 DT      0.0000
    381 H72        5.5224    -0.6815   413.7976 H        135 DT      0.0000
    382 H73        4.6766     0.8170   413.3426 H        135 DT      0.0000
    383 P          9.9726     0.9635   433.2650 P.3      141 DG      0.0000
    384 OP1       11.3397     0.3868   433.2635 O.co2    141 DG      0.0000
    385 OP2        9.1674     0.1920   434.3207 O.co2    141 DG      0.0000
    386 O5'        9.8580     2.5404   433.4434 O.3      141 DG      0.0000
    387 C5'        9.6145     3.5524   432.4434 C.3      141 DG      0.0000
    388 C4'        8.5011     4.4497   432.9422 C.3      141 DG      0.0000
    389 O4'        7.2303     4.0016   432.5231 O.3      141 DG      0.0000
    390 C3'        8.4030     4.6946   434.4344 C.3      141 DG      0.0000
    391 O3'        8.3989     6.1138   434.7464 O.3      141 DG      0.0000
    392 C2'        7.1312     3.9836   434.8563 C.3      141 DG      0.0000
    393 C1'        6.2933     3.9818   433.6006 C.3      141 DG      0.0000
    394 N9         5.4291     2.7878   433.5716 N.ar     141 DG      0.0000
    395 C8         5.7527     1.4713   433.8005 C.ar     141 DG      0.0000
    396 N7         4.7350     0.6451   433.7108 N.ar     141 DG      0.0000
    397 C5         3.6623     1.4744   433.3937 C.ar     141 DG      0.0000
    398 C6         2.2910     1.1990   433.1678 C.2      141 DG      0.0000
    399 O6         1.7188     0.1089   433.1891 O.2      141 DG      0.0000
    400 N1         1.5165     2.2910   432.8863 N.am     141 DG      0.0000
    401 C2         1.9886     3.4949   432.8257 C.2      141 DG      0.0000
    402 N2         1.0633     4.3225   432.5289 N.pl3    141 DG      0.0000
    403 N3         3.3206     3.8666   433.0344 N.2      141 DG      0.0000
    404 C4         4.0735     2.7913   433.3070 C.ar     141 DG      0.0000
    405 H5'       10.5189     4.1398   432.2847 H        141 DG      0.0000
    406 H5''       9.3145     3.0800   431.5080 H        141 DG      0.0000
    407 H4'        8.6557     5.4235   432.4775 H        141 DG      0.0000
    408 H3'        9.2534     4.2247   434.9284 H        141 DG      0.0000
    409 H2'        7.3445     2.9660   435.1833 H        141 DG      0.0000
    410 H2''       6.6291     4.5400   435.6478 H        141 DG      0.0000
    411 H1'        5.6780     4.8810   433.5687 H        141 DG      0.0000
    412 H8         6.7555     1.1448   434.0335 H        141 DG      0.0000
    413 H1         0.5304     2.1513   432.7179 H        141 DG      0.0000
    414 H21        0.1192     3.9939   432.3845 H        141 DG      0.0000
    415 H22        1.2752     5.3058   432.4384 H        141 DG      0.0000
    416 P          8.0241     6.6718   436.1749 P.3      142 DT      0.0000
    417 OP1        8.8621     7.8148   436.6866 O.co2    142 DT      0.0000
    418 OP2        8.3753     5.4874   437.0936 O.co2    142 DT      0.0000
    419 O5'        6.4912     6.9002   436.2035 O.3      142 DT      0.0000
    420 C5'        5.8806     8.2120   436.0595 C.3      142 DT      0.0000
    421 C4'        4.3905     7.9478   436.1170 C.3      142 DT      0.0000
    422 O4'        4.0771     6.6002   435.8419 O.3      142 DT      0.0000
    423 C3'        3.7081     8.2385   437.4298 C.3      142 DT      0.0000
    424 O3'        2.7844     9.3207   437.2415 O.3      142 DT      0.0000
    425 C2'        2.9892     6.9479   437.8220 C.3      142 DT      0.0000
    426 C1'        2.7931     6.3143   436.4692 C.3      142 DT      0.0000
    427 N1         2.6684     4.8598   436.5659 N.am     142 DT      0.0000
    428 C2         1.4268     4.3191   436.3679 C.2      142 DT      0.0000
    429 O2         0.4374     5.0080   436.1298 O.2      142 DT      0.0000
    430 N3         1.3200     2.9568   436.4490 N.am     142 DT      0.0000
    431 C4         2.3752     2.1507   436.7049 C.2      142 DT      0.0000
    432 O4         2.1221     0.9184   436.7502 O.2      142 DT      0.0000
    433 C5         3.6673     2.7344   436.9046 C.2      142 DT      0.0000
    434 C7         4.8598     1.8787   437.1845 C.3      142 DT      0.0000
    435 C6         3.7625     4.0677   436.8231 C.2      142 DT      0.0000
    436 H5'        6.1863     8.8700   436.8730 H        142 DT      0.0000
    437 H5''       6.1495     8.6501   435.0983 H        142 DT      0.0000
    438 H4'        3.9148     8.5620   435.3525 H        142 DT      0.0000
    439 H3'        4.4466     8.5022   438.1869 H        142 DT      0.0000
    440 H2'        3.6062     6.3261   438.4708 H        142 DT      0.0000
    441 H2''       2.0298     7.1656   438.2912 H        142 DT      0.0000
    442 H1'        1.9620     6.7616   435.9239 H        142 DT      0.0000
    443 H3         0.4127     2.5349   436.3115 H        142 DT      0.0000
    444 H6         4.7264     4.5343   436.9635 H        142 DT      0.0000
    445 H71        5.4587     1.7817   436.2790 H        142 DT      0.0000
    446 H72        4.5303     0.8918   437.5093 H        142 DT      0.0000
    447 H73        5.4603     2.3379   437.9698 H        142 DT      0.0000
    448 P          2.7073    10.3216   438.5215 P.3      143 DG      0.0000
    449 OP1        2.5262    11.6545   437.8064 O.co2    143 DG      0.0000
    450 OP2        3.9441    10.2182   439.2750 O.co2    143 DG      0.0000
    451 O5'        1.3262     9.7008   439.1310 O.3      143 DG      0.0000
    452 C5'        0.3442     9.5284   438.0404 C.3      143 DG      0.0000
    453 C4'       -0.7656     8.6631   438.5605 C.3      143 DG      0.0000
    454 O4'       -0.6188     7.2799   438.3799 O.3      143 DG      0.0000
    455 C3'       -1.0349     8.8884   440.0685 C.3      143 DG      0.0000
    456 O3'       -2.4394     9.2036   440.2274 O.3      143 DG      0.0000
    457 C2'       -0.5540     7.6099   440.7211 C.3      143 DG      0.0000
    458 C1'       -0.8519     6.5781   439.6395 C.3      143 DG      0.0000
    459 N9        -0.0306     5.3742   439.8091 N.ar     143 DG      0.0000
    460 C8         1.2918     5.2811   440.1453 C.ar     143 DG      0.0000
    461 N7         1.7502     4.0517   440.2310 N.ar     143 DG      0.0000
    462 C5         0.6381     3.2804   439.9010 C.ar     143 DG      0.0000
    463 C6         0.4788     1.8683   439.8066 C.2      143 DG      0.0000
    464 O6         1.3294     0.9868   439.9990 O.2      143 DG      0.0000
    465 N1        -0.7922     1.4606   439.4716 N.am     143 DG      0.0000
    466 C2        -1.7987     2.3498   439.2478 C.2      143 DG      0.0000
    467 N2        -2.9680     1.7741   438.9390 N.pl3    143 DG      0.0000
    468 N3        -1.6991     3.6753   439.3189 N.2      143 DG      0.0000
    469 C4        -0.4583     4.0757   439.6454 C.ar     143 DG      0.0000
    470 H5'       -0.0511    10.4988   437.7399 H        143 DG      0.0000
    471 H5''       0.8208     9.0443   437.1880 H        143 DG      0.0000
    472 H4'       -1.6713     8.9571   438.0299 H        143 DG      0.0000
    473 H3'       -0.4332     9.7252   440.4233 H        143 DG      0.0000
    474 H2'        0.5120     7.6548   440.9440 H        143 DG      0.0000
    475 H2''      -1.1277     7.3986   441.6235 H        143 DG      0.0000
    476 H1'       -1.9039     6.2988   439.6985 H        143 DG      0.0000
    477 H8         1.9101     6.1479   440.3259 H        143 DG      0.0000
    478 H1        -0.9841     0.4724   439.3893 H        143 DG      0.0000
    479 H21       -3.0377     0.7678   438.8888 H        143 DG      0.0000
    480 H22       -3.7800     2.3463   438.7563 H        143 DG      0.0000
    481 P         -3.0364     9.6032   441.6158 P.3      144 DA      0.0000
    482 OP1       -3.0053    11.0544   441.9711 O.co2    144 DA      0.0000
    483 OP2       -1.9696     8.8728   442.5115 O.co2    144 DA      0.0000
    484 O5'       -4.3702     8.7825   441.8649 O.3      144 DA      0.0000
    485 C5'       -5.1874     8.2055   440.8358 C.3      144 DA      0.0000
    486 C4'       -5.4918     6.7937   441.3102 C.3      144 DA      0.0000
    487 O4'       -4.3382     5.9852   441.2198 O.3      144 DA      0.0000
    488 C3'       -6.0179     6.6587   442.7392 C.3      144 DA      0.0000
    489 O3'       -7.1699     5.7921   442.7915 O.3      144 DA      0.0000
    490 C2'       -4.8014     6.0833   443.4747 C.3      144 DA      0.0000
    491 C1'       -4.2916     5.1384   442.3971 C.3      144 DA      0.0000
    492 N9        -2.9228     4.6647   442.6255 N.ar     144 DA      0.0000
    493 C8        -1.7736     5.3711   442.8412 C.ar     144 DA      0.0000
    494 N7        -0.7086     4.6186   443.0062 N.ar     144 DA      0.0000
    495 C5        -1.1901     3.3256   442.8660 C.ar     144 DA      0.0000
    496 C6        -0.5381     2.0740   442.9140 C.ar     144 DA      0.0000
    497 N6         0.7687     1.9115   443.1337 N.pl3    144 DA      0.0000
    498 N1        -1.3460     0.9887   442.7242 N.ar     144 DA      0.0000
    499 C2        -2.6739     1.1310   442.5064 C.ar     144 DA      0.0000
    500 N3        -3.3549     2.2748   442.4482 N.ar     144 DA      0.0000
    501 C4        -2.5440     3.3321   442.6350 C.ar     144 DA      0.0000
    502 H5'       -4.6485     8.1820   439.8887 H        144 DA      0.0000
    503 H5''      -6.1119     8.7729   440.7281 H        144 DA      0.0000
    504 H4'       -6.2427     6.3744   440.6404 H        144 DA      0.0000
    505 H3'       -6.2687     7.6406   443.1406 H        144 DA      0.0000
    506 H2'       -4.0709     6.8541   443.7202 H        144 DA      0.0000
    507 H2''      -5.1058     5.5340   444.3656 H        144 DA      0.0000
    508 H1'       -4.9704     4.2932   442.2826 H        144 DA      0.0000
    509 H8        -1.7430     6.4502   442.8733 H        144 DA      0.0000
    510 H2        -3.2409     0.2227   442.3651 H        144 DA      0.0000
    511 H61        1.4665     2.6353   443.0363 H        144 DA      0.0000
    512 H62        1.1740     1.0024   442.9622 H        144 DA      0.0000
    513 P         -8.3401     5.9534   443.9329 P.3      145 DA      0.0000
    514 OP1       -9.6569     6.2638   443.2659 O.co2    145 DA      0.0000
    515 OP2       -7.7797     7.0385   444.7639 O.co2    145 DA      0.0000
    516 O5'       -8.5113     4.4587   444.4638 O.3      145 DA      0.0000
    517 C5'       -8.9279     3.3715   443.6394 C.3      145 DA      0.0000
    518 C4'       -8.2726     2.1051   444.1618 C.3      145 DA      0.0000
    519 O4'       -6.8787     2.2293   444.1899 O.3      145 DA      0.0000
    520 C3'       -8.7059     1.6053   445.5291 C.3      145 DA      0.0000
    521 O3'       -9.3391     0.3284   445.4512 O.3      145 DA      0.0000
    522 C2'       -7.4159     1.6439   446.3578 C.3      145 DA      0.0000
    523 C1'       -6.3240     1.5524   445.3640 C.3      145 DA      0.0000
    524 N9        -5.0168     2.1791   445.6321 N.ar     145 DA      0.0000
    525 C8        -4.6802     3.5060   445.7472 C.ar     145 DA      0.0000
    526 N7        -3.3972     3.7217   445.9165 N.ar     145 DA      0.0000
    527 C5        -2.8392     2.4478   445.8795 C.ar     145 DA      0.0000
    528 C6        -1.4932     1.9989   446.0000 C.ar     145 DA      0.0000
    529 N6        -0.4357     2.7777   446.1916 N.pl3    145 DA      0.0000
    530 N1        -1.3096     0.6423   445.9018 N.ar     145 DA      0.0000
    531 C2        -2.3736    -0.1910   445.7127 C.ar     145 DA      0.0000
    532 N3        -3.6500     0.1602   445.6049 N.ar     145 DA      0.0000
    533 C4        -3.8146     1.4951   445.6967 C.ar     145 DA      0.0000
    534 H5'       -8.6189     3.5494   442.6094 H        145 DA      0.0000
    535 H5''     -10.0122     3.2699   443.6854 H        145 DA      0.0000
    536 H4'       -8.5040     1.3135   443.4490 H        145 DA      0.0000
    537 H3'       -9.4127     2.3190   445.9523 H        145 DA      0.0000
    538 H2'       -7.3476     2.5764   446.9181 H        145 DA      0.0000
    539 H2''      -7.3792     0.7925   447.0374 H        145 DA      0.0000
    540 H1'       -6.1635     0.5028   445.1179 H        145 DA      0.0000
    541 H8        -5.4084     4.3024   445.7024 H        145 DA      0.0000
    542 H2        -2.1550    -1.2464   445.6436 H        145 DA      0.0000
    543 H61       -0.5197     3.7299   446.5178 H        145 DA      0.0000
    544 H62        0.4844     2.4054   446.0048 H        145 DA      0.0000
    545 P        -10.5496    -0.1861   446.4075 P.3      146 DT      0.0000
    546 OP1      -11.6140    -0.9315   445.6102 O.co2    146 DT      0.0000
    547 OP2      -11.0491     0.8972   447.2281 O.co2    146 DT      0.0000
    548 O5'       -9.8252    -1.4183   447.2212 O.3      146 DT      0.0000
    549 C5'       -8.9618    -2.1837   446.2761 C.3      146 DT      0.0000
    550 C4'       -7.7084    -2.4692   447.0638 C.3      146 DT      0.0000
    551 O4'       -6.8899    -1.3373   447.2558 O.3      146 DT      0.0000
    552 C3'       -8.0168    -2.9882   448.4804 C.3      146 DT      0.0000
    553 O3'       -7.9280    -4.4011   448.4821 O.3      146 DT      0.0000
    554 C2'       -7.0046    -2.2804   449.3776 C.3      146 DT      0.0000
    555 C1'       -6.0310    -1.7311   448.4130 C.3      146 DT      0.0000
    556 N1        -5.2299    -0.5659   448.7528 N.am     146 DT      0.0000
    557 C2        -3.8596    -0.7639   448.8907 C.2      146 DT      0.0000
    558 O2        -3.3959    -1.8935   448.8027 O.2      146 DT      0.0000
    559 N3        -3.0747     0.3201   449.1447 N.am     146 DT      0.0000
    560 C4        -3.5783     1.5837   449.2648 C.2      146 DT      0.0000
    561 O4        -2.7813     2.5422   449.5200 O.2      146 DT      0.0000
    562 C5        -4.9900     1.7666   449.0933 C.2      146 DT      0.0000
    563 C7        -5.5929     3.1412   449.1808 C.3      146 DT      0.0000
    564 C6        -5.7594     0.6945   448.8375 C.2      146 DT      0.0000
    565 H5'       -9.4478    -3.1116   445.9744 H        146 DT      0.0000
    566 H5''      -8.7285    -1.5771   445.4011 H        146 DT      0.0000
    567 H4'       -7.1319    -3.2280   446.5347 H        146 DT      0.0000
    568 H3'       -9.0254    -2.6881   448.7647 H        146 DT      0.0000
    569 H2'       -7.4794    -1.4842   449.9510 H        146 DT      0.0000
    570 H2''      -6.5205    -2.9942   450.0440 H        146 DT      0.0000
    571 H1'       -5.3640    -2.5326   448.0957 H        146 DT      0.0000
    572 H3        -2.0793     0.1836   449.2484 H        146 DT      0.0000
    573 H6        -6.8214     0.8302   448.6954 H        146 DT      0.0000
    574 H71       -4.8100     3.8690   449.3938 H        146 DT      0.0000
    575 H72       -6.0709     3.3890   448.2330 H        146 DT      0.0000
    576 H73       -6.3354     3.1622   449.9786 H        146 DT      0.0000
    577 P         -8.3471    -5.4057   449.5887 P.3      147 DT      0.0000
    578 OP1       -8.6048    -6.8069   448.9766 O.co2    147 DT      0.0000
    579 OP2       -9.5704    -4.8455   450.2186 O.co2    147 DT      0.0000
    580 O5'       -7.0231    -5.6066   450.4710 O.3      147 DT      0.0000
    581 C5'       -5.9892    -6.3381   449.7592 C.3      147 DT      0.0000
    582 C4'       -4.6838    -6.0995   450.4354 C.3      147 DT      0.0000
    583 O4'       -4.2648    -4.7406   450.4121 O.3      147 DT      0.0000
    584 C3'       -4.6373    -6.5517   451.9020 C.3      147 DT      0.0000
    585 O3'       -3.4238    -7.2298   452.1661 O.3      147 DT      0.0000
    586 C2'       -4.6476    -5.1910   452.6384 C.3      147 DT      0.0000
    587 C1'       -3.6690    -4.4689   451.7348 C.3      147 DT      0.0000
    588 N1        -3.6329    -3.0489   452.0325 N.am     147 DT      0.0000
    589 C2        -2.4016    -2.4162   452.0873 C.2      147 DT      0.0000
    590 O2        -1.3812    -3.0802   451.8989 O.2      147 DT      0.0000
    591 N3        -2.3748    -1.0761   452.3532 N.am     147 DT      0.0000
    592 C4        -3.5103    -0.3547   452.5602 C.2      147 DT      0.0000
    593 O4        -3.4085     0.8855   452.7835 O.2      147 DT      0.0000
    594 C5        -4.7718    -1.0152   452.4952 C.2      147 DT      0.0000
    595 C7        -6.0678    -0.2880   452.7051 C.3      147 DT      0.0000
    596 C6        -4.7796    -2.3317   452.2340 C.2      147 DT      0.0000
    597 H5'       -6.2192    -7.4035   449.7717 H        147 DT      0.0000
    598 H5''      -5.9366    -5.9874   448.7285 H        147 DT      0.0000
    599 H4'       -3.9324    -6.6770   449.8969 H        147 DT      0.0000
    600 H3'       -5.5038    -7.1588   452.1645 H        147 DT      0.0000
    601 H2'       -5.6335    -4.7263   452.6371 H        147 DT      0.0000
    602 H2''      -4.2558    -5.2857   453.6511 H        147 DT      0.0000
    603 H1'       -2.6739    -4.9072   451.8104 H        147 DT      0.0000
    604 H3        -1.4825    -0.6052   452.3976 H        147 DT      0.0000
    605 H6        -5.7286    -2.8445   452.1810 H        147 DT      0.0000
    606 H71       -5.8664     0.7647   452.9040 H        147 DT      0.0000
    607 H72       -6.6832    -0.3769   451.8098 H        147 DT      0.0000
    608 H73       -6.5956    -0.7235   453.5535 H        147 DT      0.0000
    609 P         -3.0073    -8.6154   452.7740 P.3      148 DC      0.0000
    610 OP1       -2.4726    -9.5501   451.7061 O.co2    148 DC      0.0000
    611 OP2       -4.1935    -9.0911   453.5090 O.co2    148 DC      0.0000
    612 O5'       -1.7114    -8.0691   453.6000 O.3      148 DC      0.0000
    613 C5'       -0.9297    -7.3485   452.5778 C.3      148 DC      0.0000
    614 C4'        0.2573    -6.7463   453.2743 C.3      148 DC      0.0000
    615 O4'        0.1003    -5.3834   453.5212 O.3      148 DC      0.0000
    616 C3'        0.6717    -7.4424   454.5657 C.3      148 DC      0.0000
    617 O3'        2.0274    -7.8626   454.4861 O.3      148 DC      0.0000
    618 C2'        0.2994    -6.3921   455.6145 C.3      148 DC      0.0000
    619 C1'        0.4440    -5.0972   454.9181 C.3      148 DC      0.0000
    620 N1        -0.5255    -4.0485   455.2502 N.am     148 DC      0.0000
    621 C2         0.0069    -2.7867   455.5060 C.2      148 DC      0.0000
    622 O2         1.2263    -2.5924   455.5105 O.2      148 DC      0.0000
    623 N3        -0.8759    -1.7713   455.7798 N.2      148 DC      0.0000
    624 C4        -2.2241    -1.9778   455.7699 C.2      148 DC      0.0000
    625 N4        -2.9959    -0.9326   456.0468 N.pl3    148 DC      0.0000
    626 C5        -2.7499    -3.2587   455.4919 C.2      148 DC      0.0000
    627 C6        -1.8698    -4.2460   455.2271 C.2      148 DC      0.0000
    628 H5'       -0.5976    -8.0409   451.8041 H        148 DC      0.0000
    629 H5''      -1.5377    -6.5605   452.1336 H        148 DC      0.0000
    630 H4'        1.0990    -6.8411   452.5883 H        148 DC      0.0000
    631 H3'        0.0408    -8.3196   454.7090 H        148 DC      0.0000
    632 H2'       -0.7271    -6.5339   455.9524 H        148 DC      0.0000
    633 H2''       0.9853    -6.4440   456.4600 H        148 DC      0.0000
    634 H1'        1.4647    -4.7235   454.9990 H        148 DC      0.0000
    635 H5        -3.8145    -3.4406   455.4913 H        148 DC      0.0000
    636 H6        -2.2472    -5.2292   454.9881 H        148 DC      0.0000
    637 H41       -2.5781    -0.0349   456.2460 H        148 DC      0.0000
    638 H42       -4.0006    -1.0356   456.0581 H        148 DC      0.0000
    639 P          2.7513    -8.9594   455.4381 P.3      149 DA      0.0000
    640 OP1        3.9042    -9.5433   454.6444 O.co2    149 DA      0.0000
    641 OP2        1.7497    -9.9887   455.7836 O.co2    149 DA      0.0000
    642 O5'        3.2609    -8.0841   456.7351 O.3      149 DA      0.0000
    643 C5'        4.0635    -6.9001   456.4399 C.3      149 DA      0.0000
    644 C4'        4.3698    -6.1510   457.6952 C.3      149 DA      0.0000
    645 O4'        3.5434    -5.0085   457.9373 O.3      149 DA      0.0000
    646 C3'        4.2110    -6.9486   459.0004 C.3      149 DA      0.0000
    647 O3'        4.9503    -6.2883   460.0303 O.3      149 DA      0.0000
    648 C2'        2.6941    -6.7761   459.2150 C.3      149 DA      0.0000
    649 C1'        2.6637    -5.2550   459.0317 C.3      149 DA      0.0000
    650 N9         1.2831    -4.8118   458.9374 N.ar     149 DA      0.0000
    651 C8         0.1238    -5.5277   458.8216 C.ar     149 DA      0.0000
    652 N7        -0.9802    -4.8027   458.8030 N.ar     149 DA      0.0000
    653 C5        -0.5065    -3.5027   458.9105 C.ar     149 DA      0.0000
    654 C6        -1.1691    -2.2510   458.9450 C.ar     149 DA      0.0000
    655 N6        -2.4779    -2.0936   458.8598 N.pl3    149 DA      0.0000
    656 N1        -0.3705    -1.1513   459.0776 N.ar     149 DA      0.0000
    657 C2         0.9916    -1.2683   459.1578 C.ar     149 DA      0.0000
    658 N3         1.6842    -2.4044   459.1279 N.ar     149 DA      0.0000
    659 C4         0.8755    -3.4854   459.0049 C.ar     149 DA      0.0000
    660 H5'        4.9970    -7.2077   455.9687 H        149 DA      0.0000
    661 H5''       3.5124    -6.2517   455.7586 H        149 DA      0.0000
    662 H4'        5.4031    -5.8092   457.6363 H        149 DA      0.0000
    663 H3'        4.4988    -7.9937   458.8867 H        149 DA      0.0000
    664 H2'        2.1027    -7.3002   458.4642 H        149 DA      0.0000
    665 H2''       2.3995    -7.0617   460.2249 H        149 DA      0.0000
    666 H1'        3.1009    -4.8017   459.9214 H        149 DA      0.0000
    667 H8         0.1117    -6.6053   458.7506 H        149 DA      0.0000
    668 H2         1.5566    -0.3529   459.2542 H        149 DA      0.0000
    669 H61       -3.1072    -1.3244   459.0398 H        149 DA      0.0000
    670 H62       -2.9545    -2.9265   458.5450 H        149 DA      0.0000
    671 P          6.5334    -6.4743   460.1708 P.3      150 DC      0.0000
    672 OP1        7.1783    -6.9792   458.9257 O.co2    150 DC      0.0000
    673 OP2        6.6389    -7.4423   461.3137 O.co2    150 DC      0.0000
    674 O5'        7.0496    -5.0020   460.4540 O.3      150 DC      0.0000
    675 C5'        7.2634    -4.0522   459.3662 C.3      150 DC      0.0000
    676 C4'        7.0080    -2.7153   460.0712 C.3      150 DC      0.0000
    677 O4'        5.6353    -2.6603   460.3832 O.3      150 DC      0.0000
    678 C3'        7.7748    -2.5536   461.3811 C.3      150 DC      0.0000
    679 O3'        8.5181    -1.3156   461.4490 O.3      150 DC      0.0000
    680 C2'        6.6910    -2.6715   462.4633 C.3      150 DC      0.0000
    681 C1'        5.5025    -2.1187   461.7871 C.3      150 DC      0.0000
    682 N1         4.1534    -2.5531   462.1400 N.am     150 DC      0.0000
    683 C2         3.1832    -1.5530   462.1131 C.2      150 DC      0.0000
    684 O2         3.4519    -0.3763   461.9061 O.2      150 DC      0.0000
    685 N3         1.8987    -1.9215   462.3662 N.2      150 DC      0.0000
    686 C4         1.5432    -3.2080   462.5995 C.2      150 DC      0.0000
    687 N4         0.2532    -3.4446   462.8305 N.pl3    150 DC      0.0000
    688 C5         2.5405    -4.2217   462.6061 C.2      150 DC      0.0000
    689 C6         3.8058    -3.8506   462.3567 C.2      150 DC      0.0000
    690 H5'        8.2815    -4.1109   458.9814 H        150 DC      0.0000
    691 H5''       6.5393    -4.2115   458.5672 H        150 DC      0.0000
    692 H4'        7.2609    -1.8957   459.3985 H        150 DC      0.0000
    693 H3'        8.4695    -3.3869   461.4870 H        150 DC      0.0000
    694 H2'        6.5327    -3.7111   462.7503 H        150 DC      0.0000
    695 H2''       6.9515    -2.0692   463.3336 H        150 DC      0.0000
    696 H1'        5.5529    -1.0299   461.7739 H        150 DC      0.0000
    697 H5         2.2886    -5.2530   462.8046 H        150 DC      0.0000
    698 H6         4.5750    -4.6082   462.3269 H        150 DC      0.0000
    699 H41       -0.4098    -2.6828   462.8194 H        150 DC      0.0000
    700 H42       -0.0621    -4.3859   463.0166 H        150 DC      0.0000
    701 P         -8.0741     2.6183   464.4085 P.3      150 DG      0.0000
    702 OP1       -9.5058     3.0122   464.5873 O.co2    150 DG      0.0000
    703 OP2       -7.8755     1.5680   463.3237 O.co2    150 DG      0.0000
    704 O5'       -7.1580     3.9700   464.2013 O.3      150 DG      0.0000
    705 C5'       -6.2955     4.4231   465.2970 C.3      150 DG      0.0000
    706 C4'       -5.0073     4.9425   464.6628 C.3      150 DG      0.0000
    707 O4'       -4.0292     3.9433   464.5669 O.3      150 DG      0.0000
    708 C3'       -5.1799     5.5102   463.2564 C.3      150 DG      0.0000
    709 O3'       -4.3927     6.6939   462.9894 O.3      150 DG      0.0000
    710 C2'       -4.7576     4.3367   462.3541 C.3      150 DG      0.0000
    711 C1'       -3.6307     3.7360   463.1780 C.3      150 DG      0.0000
    712 N9        -3.4832     2.2963   462.9047 N.ar     150 DG      0.0000
    713 C8        -4.4771     1.3596   462.7480 C.ar     150 DG      0.0000
    714 N7        -4.0363     0.1492   462.5296 N.ar     150 DG      0.0000
    715 C5        -2.6541     0.2926   462.5544 C.ar     150 DG      0.0000
    716 C6        -1.6099    -0.6576   462.3979 C.2      150 DG      0.0000
    717 O6        -1.7397    -1.8742   462.2011 O.2      150 DG      0.0000
    718 N1        -0.3460    -0.1278   462.4848 N.am     150 DG      0.0000
    719 C2        -0.1184     1.1902   462.7055 C.2      150 DG      0.0000
    720 N2         1.1584     1.5580   462.7688 N.pl3    150 DG      0.0000
    721 N3        -1.0637     2.1248   462.8632 N.2      150 DG      0.0000
    722 C4        -2.3035     1.6043   462.7799 C.ar     150 DG      0.0000
    723 H5'       -6.7864     5.2206   465.8548 H        150 DG      0.0000
    724 H5''      -6.0715     3.5890   465.9620 H        150 DG      0.0000
    725 H4'       -4.6157     5.7358   465.2995 H        150 DG      0.0000
    726 H3'       -6.2331     5.7334   463.0859 H        150 DG      0.0000
    727 H2'       -5.5725     3.6270   462.2115 H        150 DG      0.0000
    728 H2''      -4.3865     4.6988   461.3954 H        150 DG      0.0000
    729 H1'       -2.6951     4.2563   462.9727 H        150 DG      0.0000
    730 H8        -5.5281     1.6025   462.8007 H        150 DG      0.0000
    731 H1         0.4462    -0.7453   462.3800 H        150 DG      0.0000
    732 H21        1.8885     0.8697   462.6538 H        150 DG      0.0000
    733 H22        1.3977     2.5255   462.9320 H        150 DG      0.0000
    734 P         -3.9385     6.8956   461.4660 P.3      149 DT      0.0000
    735 OP1       -3.7493     8.3366   461.0751 O.co2    149 DT      0.0000
    736 OP2       -5.1013     6.2970   460.7654 O.co2    149 DT      0.0000
    737 O5'       -2.5518     6.1037   461.3351 O.3      149 DT      0.0000
    738 C5'       -1.3305     6.8644   461.6027 C.3      149 DT      0.0000
    739 C4'       -0.1899     6.2196   460.8456 C.3      149 DT      0.0000
    740 O4'       -0.2748     4.8060   460.8184 O.3      149 DT      0.0000
    741 C3'       -0.1170     6.6573   459.3909 C.3      149 DT      0.0000
    742 O3'        1.2283     6.8319   458.8958 O.3      149 DT      0.0000
    743 C2'       -0.8435     5.5448   458.6681 C.3      149 DT      0.0000
    744 C1'       -0.3094     4.3536   459.4462 C.3      149 DT      0.0000
    745 N1        -1.2955     3.2721   459.2949 N.am     149 DT      0.0000
    746 C2        -0.8056     1.9745   459.4017 C.2      149 DT      0.0000
    747 O2         0.3895     1.7748   459.5914 O.2      149 DT      0.0000
    748 N3        -1.7080     0.9549   459.2815 N.am     149 DT      0.0000
    749 C4        -3.0331     1.1867   459.0639 C.2      149 DT      0.0000
    750 O4        -3.7985     0.1712   458.9663 O.2      149 DT      0.0000
    751 C5        -3.5049     2.5263   458.9575 C.2      149 DT      0.0000
    752 C7        -4.9649     2.7939   458.7286 C.3      149 DT      0.0000
    753 C6        -2.6191     3.5182   459.0793 C.2      149 DT      0.0000
    754 H5'       -1.4579     7.8942   461.2690 H        149 DT      0.0000
    755 H5''      -1.1160     6.8494   462.6713 H        149 DT      0.0000
    756 H4'        0.7445     6.4969   461.3336 H        149 DT      0.0000
    757 H3'       -0.6699     7.5884   459.2669 H        149 DT      0.0000
    758 H2'       -1.9256     5.6386   458.7596 H        149 DT      0.0000
    759 H2''      -0.5421     5.4957   457.6217 H        149 DT      0.0000
    760 H1'        0.6776     4.0521   459.0955 H        149 DT      0.0000
    761 H3        -1.3831     0.0014   459.3562 H        149 DT      0.0000
    762 H6        -2.9595     4.5405   459.0051 H        149 DT      0.0000
    763 H71       -5.5018     1.8478   458.6599 H        149 DT      0.0000
    764 H72       -5.3618     3.3771   459.5595 H        149 DT      0.0000
    765 H73       -5.0909     3.3514   457.8004 H        149 DT      0.0000
    766 P          1.2760     8.2969   458.1174 P.3      148 DG      0.0000
    767 OP1        1.7428     9.4173   458.9887 O.co2    148 DG      0.0000
    768 OP2       -0.1495     8.3759   457.7119 O.co2    148 DG      0.0000
    769 O5'        2.4192     8.0149   457.0366 O.3      148 DG      0.0000
    770 C5'        3.8058     8.0493   457.4601 C.3      148 DG      0.0000
    771 C4'        4.3829     6.7122   457.0124 C.3      148 DG      0.0000
    772 O4'        3.4557     5.6801   457.2831 O.3      148 DG      0.0000
    773 C3'        4.7271     6.6406   455.5246 C.3      148 DG      0.0000
    774 O3'        6.0825     6.2862   455.3161 O.3      148 DG      0.0000
    775 C2'        3.7035     5.6788   454.9479 C.3      148 DG      0.0000
    776 C1'        3.3562     4.8106   456.1341 C.3      148 DG      0.0000
    777 N9         1.9981     4.2741   456.0105 N.ar     148 DG      0.0000
    778 C8         0.8268     4.9591   455.8516 C.ar     148 DG      0.0000
    779 N7        -0.2295     4.1870   455.7736 N.ar     148 DG      0.0000
    780 C5         0.2816     2.8998   455.9111 C.ar     148 DG      0.0000
    781 C6        -0.3475     1.6269   455.9206 C.2      148 DG      0.0000
    782 O6        -1.5478     1.3932   455.8215 O.2      148 DG      0.0000
    783 N1         0.5070     0.5717   456.0695 N.am     148 DG      0.0000
    784 C2         1.8636     0.7438   456.2024 C.2      148 DG      0.0000
    785 N2         2.5817    -0.3714   456.3381 N.pl3    148 DG      0.0000
    786 N3         2.5175     1.9099   456.2067 N.2      148 DG      0.0000
    787 C4         1.6578     2.9461   456.0560 C.ar     148 DG      0.0000
    788 H5'        4.3330     8.8745   456.9813 H        148 DG      0.0000
    789 H5''       3.8665     8.1418   458.5444 H        148 DG      0.0000
    790 H4'        5.2898     6.5194   457.5854 H        148 DG      0.0000
    791 H3'        4.5586     7.6241   455.0861 H        148 DG      0.0000
    792 H2'        2.8263     6.2122   454.5816 H        148 DG      0.0000
    793 H2''       4.1470     5.0800   454.1524 H        148 DG      0.0000
    794 H1'        4.0731     3.9941   456.2211 H        148 DG      0.0000
    795 H8         0.7760     6.0364   455.7955 H        148 DG      0.0000
    796 H1         0.1295    -0.3650   456.0824 H        148 DG      0.0000
    797 H21        2.1222    -1.2709   456.3390 H        148 DG      0.0000
    798 H22        3.5850    -0.3168   456.4399 H        148 DG      0.0000
    799 P          6.8340     5.1991   454.4498 P.3      147 DA      0.0000
    800 OP1        8.0267     4.6334   455.2312 O.co2    147 DA      0.0000
    801 OP2        7.2959     5.9127   453.2571 O.co2    147 DA      0.0000
    802 O5'        5.7935     3.9577   454.2750 O.3      147 DA      0.0000
    803 C5'        5.8424     3.0404   455.4315 C.3      147 DA      0.0000
    804 C4'        6.3108     1.7069   454.9037 C.3      147 DA      0.0000
    805 O4'        5.2492     0.8137   454.6814 O.3      147 DA      0.0000
    806 C3'        7.0361     1.8182   453.5632 C.3      147 DA      0.0000
    807 O3'        8.1648     0.9806   453.4880 O.3      147 DA      0.0000
    808 C2'        5.9151     1.5835   452.5666 C.3      147 DA      0.0000
    809 C1'        4.8601     0.7945   453.2904 C.3      147 DA      0.0000
    810 N9         3.5149     1.3504   453.0649 N.ar     147 DA      0.0000
    811 C8         3.1404     2.6636   452.8786 C.ar     147 DA      0.0000
    812 N7         1.8536     2.8371   452.6827 N.ar     147 DA      0.0000
    813 C5         1.3421     1.5484   452.7695 C.ar     147 DA      0.0000
    814 C6         0.0198     1.0574   452.6639 C.ar     147 DA      0.0000
    815 N6        -1.0348     1.8246   452.4514 N.pl3    147 DA      0.0000
    816 N1        -0.1300    -0.2904   452.7876 N.ar     147 DA      0.0000
    817 C2         0.9414    -1.1072   453.0121 C.ar     147 DA      0.0000
    818 N3         2.2068    -0.7097   453.1280 N.ar     147 DA      0.0000
    819 C4         2.3430     0.6315   452.9919 C.ar     147 DA      0.0000
    820 H5'        6.5409     3.4152   456.1795 H        147 DA      0.0000
    821 H5''       4.8488     2.9392   455.8681 H        147 DA      0.0000
    822 H4'        6.9911     1.2644   455.6313 H        147 DA      0.0000
    823 H3'        7.3749     2.8481   453.4501 H        147 DA      0.0000
    824 H2'        6.2848     1.0204   451.7097 H        147 DA      0.0000
    825 H2''       5.5051     2.5378   452.2361 H        147 DA      0.0000
    826 H1'        4.8812    -0.2347   452.9323 H        147 DA      0.0000
    827 H8         3.8459     3.4812   452.8925 H        147 DA      0.0000
    828 H2         0.7455    -2.1653   453.1034 H        147 DA      0.0000
    829 H61       -1.9538     1.5485   452.7668 H        147 DA      0.0000
    830 H62       -0.9200     2.7024   451.9652 H        147 DA      0.0000
    831 P          8.7442     0.1101   452.3034 P.3      146 DA      0.0000
    832 OP1        9.8586    -0.8443   452.8233 O.co2    146 DA      0.0000
    833 OP2        9.3546     1.1071   451.3697 O.co2    146 DA      0.0000
    834 O5'        7.5854    -0.8315   451.8007 O.3      146 DA      0.0000
    835 C5'        7.5187    -2.1986   452.2565 C.3      146 DA      0.0000
    836 C4'        6.3423    -2.8414   451.5546 C.3      146 DA      0.0000
    837 O4'        5.2213    -2.0129   451.4339 O.3      146 DA      0.0000
    838 C3'        6.6698    -3.3379   450.1471 C.3      146 DA      0.0000
    839 O3'        6.5907    -4.7755   450.1156 O.3      146 DA      0.0000
    840 C2'        5.7260    -2.5378   449.2475 C.3      146 DA      0.0000
    841 C1'        4.5622    -2.2456   450.1453 C.3      146 DA      0.0000
    842 N9         3.7953    -1.0409   449.8457 N.ar     146 DA      0.0000
    843 C8         4.2390     0.2508   449.6510 C.ar     146 DA      0.0000
    844 N7         3.2730     1.1180   449.4455 N.ar     146 DA      0.0000
    845 C5         2.1191     0.3625   449.5201 C.ar     146 DA      0.0000
    846 C6         0.7554     0.7072   449.3866 C.ar     146 DA      0.0000
    847 N6         0.3240     1.9411   449.1434 N.pl3    146 DA      0.0000
    848 N1        -0.1272    -0.3324   449.5354 N.ar     146 DA      0.0000
    849 C2         0.2800    -1.5912   449.7879 C.ar     146 DA      0.0000
    850 N3         1.5480    -1.9901   449.9268 N.ar     146 DA      0.0000
    851 C4         2.4151    -0.9638   449.7796 C.ar     146 DA      0.0000
    852 H5'        8.4392    -2.7236   452.0014 H        146 DA      0.0000
    853 H5''       7.3650    -2.2227   453.3353 H        146 DA      0.0000
    854 H4'        6.0448    -3.7081   452.1447 H        146 DA      0.0000
    855 H3'        7.6937    -3.0471   449.9121 H        146 DA      0.0000
    856 H2'        6.1982    -1.6160   448.9076 H        146 DA      0.0000
    857 H2''       5.4090    -3.1401   448.3962 H        146 DA      0.0000
    858 H1'        3.9023    -3.1111   450.2064 H        146 DA      0.0000
    859 H8         5.2838     0.5241   449.6659 H        146 DA      0.0000
    860 H2        -0.4865    -2.3455   449.8870 H        146 DA      0.0000
    861 H61       -0.6231     2.1329   449.4374 H        146 DA      0.0000
    862 H62        0.9025     2.6377   448.6961 H        146 DA      0.0000
    863 P          6.8830    -5.5426   448.7307 P.3      145 DT      0.0000
    864 OP1        7.1074    -7.0223   448.7888 O.co2    145 DT      0.0000
    865 OP2        8.0349    -4.7394   448.2180 O.co2    145 DT      0.0000
    866 O5'        5.3878    -5.3242   448.0275 O.3      145 DT      0.0000
    867 C5'        4.3561    -5.5280   449.0398 C.3      145 DT      0.0000
    868 C4'        3.0712    -5.8724   448.3569 C.3      145 DT      0.0000
    869 O4'        2.2238    -4.7774   448.1765 O.3      145 DT      0.0000
    870 C3'        3.2461    -6.5277   446.9956 C.3      145 DT      0.0000
    871 O3'        2.2689    -7.5410   446.7283 O.3      145 DT      0.0000
    872 C2'        3.1570    -5.2836   446.1023 C.3      145 DT      0.0000
    873 C1'        2.0119    -4.5282   446.7423 C.3      145 DT      0.0000
    874 N1         2.1339    -3.0763   446.5124 N.am     145 DT      0.0000
    875 C2         0.9636    -2.3480   446.3907 C.2      145 DT      0.0000
    876 O2        -0.1371    -2.9002   446.4275 O.2      145 DT      0.0000
    877 N3         1.0647    -0.9935   446.2233 N.am     145 DT      0.0000
    878 C4         2.2687    -0.3627   446.1748 C.2      145 DT      0.0000
    879 O4         2.2686     0.8908   445.9893 O.2      145 DT      0.0000
    880 C5         3.4595    -1.1275   446.3232 C.2      145 DT      0.0000
    881 C7         4.8138    -0.4613   446.2711 C.3      145 DT      0.0000
    882 C6         3.3437    -2.4483   446.4962 C.2      145 DT      0.0000
    883 H5'        4.6487    -6.3429   449.7019 H        145 DT      0.0000
    884 H5''       4.2279    -4.6140   449.6199 H        145 DT      0.0000
    885 H4'        2.5474    -6.5851   448.9939 H        145 DT      0.0000
    886 H3'        4.2454    -6.9571   446.9236 H        145 DT      0.0000
    887 H2'        4.0806    -4.7055   446.1329 H        145 DT      0.0000
    888 H2''       2.9103    -5.5617   445.0777 H        145 DT      0.0000
    889 H1'        1.0459    -4.9069   446.4084 H        145 DT      0.0000
    890 H3         0.2206    -0.4463   446.1332 H        145 DT      0.0000
    891 H6         4.2391    -3.0377   446.6276 H        145 DT      0.0000
    892 H71        5.2255    -0.5520   445.2659 H        145 DT      0.0000
    893 H72        5.4836    -0.9442   446.9827 H        145 DT      0.0000
    894 H73        4.7102     0.5930   446.5276 H        145 DT      0.0000
    895 P          2.3351    -8.2120   445.2384 P.3      144 DT      0.0000
    896 OP1        2.7339    -9.6815   445.3864 O.co2    144 DT      0.0000
    897 OP2        3.4441    -7.4524   444.5686 O.co2    144 DT      0.0000
    898 O5'        0.9388    -8.0459   444.5864 O.3      144 DT      0.0000
    899 C5'       -0.2743    -8.0022   445.3378 C.3      144 DT      0.0000
    900 C4'       -1.2588    -7.1616   444.5898 C.3      144 DT      0.0000
    901 O4'       -1.0481    -5.7767   444.5328 O.3      144 DT      0.0000
    902 C3'       -1.5546    -7.5455   443.1238 C.3      144 DT      0.0000
    903 O3'       -2.9427    -7.2143   443.0200 O.3      144 DT      0.0000
    904 C2'       -0.6669    -6.5539   442.3600 C.3      144 DT      0.0000
    905 C1'       -1.0625    -5.3142   443.1357 C.3      144 DT      0.0000
    906 N1        -0.1474    -4.1742   443.0296 N.am     144 DT      0.0000
    907 C2        -0.7572    -2.9125   443.0289 C.2      144 DT      0.0000
    908 O2        -1.9839    -2.7987   443.0720 O.2      144 DT      0.0000
    909 N3         0.0663    -1.8248   442.9755 N.am     144 DT      0.0000
    910 C4         1.4242    -1.9295   442.9157 C.2      144 DT      0.0000
    911 O4         2.1018    -0.8598   442.8533 O.2      144 DT      0.0000
    912 C5         2.0167    -3.2217   442.9240 C.2      144 DT      0.0000
    913 C7         3.5242    -3.3528   442.8626 C.3      144 DT      0.0000
    914 C6         1.2073    -4.2828   442.9905 C.2      144 DT      0.0000
    915 H5'       -0.6688    -9.0109   445.4600 H        144 DT      0.0000
    916 H5''      -0.0841    -7.5614   446.3164 H        144 DT      0.0000
    917 H4'       -2.2045    -7.2876   445.1170 H        144 DT      0.0000
    918 H3'       -1.3379    -8.5890   442.8950 H        144 DT      0.0000
    919 H2'       -0.9303    -6.4865   441.3044 H        144 DT      0.0000
    920 H2''       0.3902    -6.7844   442.4916 H        144 DT      0.0000
    921 H1'       -2.0706    -5.0078   442.8567 H        144 DT      0.0000
    922 H3        -0.3480    -0.9038   442.9804 H        144 DT      0.0000
    923 H6         1.6479    -5.2686   443.0142 H        144 DT      0.0000
    924 H71        3.9740    -2.3611   442.8137 H        144 DT      0.0000
    925 H72        3.8033    -3.9221   441.9760 H        144 DT      0.0000
    926 H73        3.8805    -3.8699   443.7535 H        144 DT      0.0000
    927 P         -3.9115    -7.6118   441.8738 P.3      143 DC      0.0000
    928 OP1       -5.1903    -8.1897   442.4829 O.co2    143 DC      0.0000
    929 OP2       -3.2030    -8.6730   441.0919 O.co2    143 DC      0.0000
    930 O5'       -4.1288    -6.1764   441.1344 O.3      143 DC      0.0000
    931 C5'       -4.9830    -5.2316   441.8589 C.3      143 DC      0.0000
    932 C4'       -5.7238    -4.4457   440.8083 C.3      143 DC      0.0000
    933 O4'       -5.1309    -3.1917   440.5631 O.3      143 DC      0.0000
    934 C3'       -5.8387    -5.1274   439.4439 C.3      143 DC      0.0000
    935 O3'       -7.0463    -4.8419   438.7346 O.3      143 DC      0.0000
    936 C2'       -4.5681    -4.6073   438.7578 C.3      143 DC      0.0000
    937 C1'       -4.4577    -3.1852   439.3044 C.3      143 DC      0.0000
    938 N1        -3.0186    -2.8520   439.4222 N.am     143 DC      0.0000
    939 C2        -2.6808    -1.4995   439.4394 C.2      143 DC      0.0000
    940 O2        -3.5513    -0.6211   439.3708 O.2      143 DC      0.0000
    941 N3        -1.3522    -1.1870   439.5427 N.2      143 DC      0.0000
    942 C4        -0.3888    -2.1425   439.6134 C.2      143 DC      0.0000
    943 N4         0.8939    -1.7875   439.7153 N.pl3    143 DC      0.0000
    944 C5        -0.7608    -3.5156   439.5883 C.2      143 DC      0.0000
    945 C6        -2.0662    -3.8217   439.4947 C.2      143 DC      0.0000
    946 H5'       -5.6864    -5.7691   442.4948 H        143 DC      0.0000
    947 H5''      -4.3704    -4.5621   442.4628 H        143 DC      0.0000
    948 H4'       -6.7341    -4.2687   441.1771 H        143 DC      0.0000
    949 H3'       -5.7530    -6.2057   439.5781 H        143 DC      0.0000
    950 H2'       -4.6785    -4.6052   437.6734 H        143 DC      0.0000
    951 H2''      -3.7025    -5.2000   439.0538 H        143 DC      0.0000
    952 H1'       -4.9465    -2.4870   438.6250 H        143 DC      0.0000
    953 H5        -0.0127    -4.2927   439.6431 H        143 DC      0.0000
    954 H6        -2.3658    -4.8592   439.4766 H        143 DC      0.0000
    955 H41        1.1473    -0.8100   439.7360 H        143 DC      0.0000
    956 H42        1.6111    -2.4964   439.7717 H        143 DC      0.0000
    957 P         -7.1859    -4.6543   437.1026 P.3      142 DA      0.0000
    958 OP1       -8.6208    -4.9369   436.7132 O.co2    142 DA      0.0000
    959 OP2       -6.1865    -5.5982   436.5326 O.co2    142 DA      0.0000
    960 O5'       -6.9248    -3.0882   436.9371 O.3      142 DA      0.0000
    961 C5'       -7.9785    -2.1582   437.4025 C.3      142 DA      0.0000
    962 C4'       -7.7290    -0.9432   436.5253 C.3      142 DA      0.0000
    963 O4'       -6.4247    -0.4126   436.7926 O.3      142 DA      0.0000
    964 C3'       -7.7149    -1.2678   435.0208 C.3      142 DA      0.0000
    965 O3'       -7.8583    -0.0975   434.2318 O.3      142 DA      0.0000
    966 C2'       -6.2510    -1.7068   434.8334 C.3      142 DA      0.0000
    967 C1'       -5.6505    -0.4892   435.5880 C.3      142 DA      0.0000
    968 N9        -4.2347    -0.8120   435.7335 N.ar     142 DA      0.0000
    969 C8        -3.6858    -2.0727   435.8063 C.ar     142 DA      0.0000
    970 N7        -2.3814    -2.0656   435.9209 N.ar     142 DA      0.0000
    971 C5        -2.0575    -0.6971   435.9146 C.ar     142 DA      0.0000
    972 C6        -0.8025    -0.0359   436.0145 C.ar     142 DA      0.0000
    973 N6         0.3655    -0.6731   436.1373 N.pl3    142 DA      0.0000
    974 N1        -0.8783     1.3239   435.9794 N.ar     142 DA      0.0000
    975 C2        -2.0635     1.9711   435.8605 C.ar     142 DA      0.0000
    976 N3        -3.2750     1.4151   435.7690 N.ar     142 DA      0.0000
    977 C4        -3.1876     0.0737   435.7965 C.ar     142 DA      0.0000
    978 H5'       -8.9736    -2.5704   437.2358 H        142 DA      0.0000
    979 H5''      -7.8357    -1.9097   438.4542 H        142 DA      0.0000
    980 H4'       -8.4830    -0.1829   436.7292 H        142 DA      0.0000
    981 H3'       -8.4268    -2.0479   434.7512 H        142 DA      0.0000
    982 H2'       -6.0271    -2.6586   435.3150 H        142 DA      0.0000
    983 H2''      -5.9634    -1.7103   433.7820 H        142 DA      0.0000
    984 H1'       -5.7737     0.4199   434.9996 H        142 DA      0.0000
    985 H8        -4.2733    -2.9782   435.7723 H        142 DA      0.0000
    986 H2        -2.0243     3.0500   435.8373 H        142 DA      0.0000
    987 H61        0.3899    -1.6825   436.1621 H        142 DA      0.0000
    988 H62        1.2239    -0.1453   436.2055 H        142 DA      0.0000
    989 P         -8.9599    -0.0175   433.0909 P.3      141 DC      0.0000
    990 OP1      -10.2020     0.3797   433.8712 O.co2    141 DC      0.0000
    991 OP2       -9.1162    -1.2832   432.3653 O.co2    141 DC      0.0000
    992 O5'       -8.3022     1.1312   432.1150 O.3      141 DC      0.0000
    993 C5'       -7.9135     2.3914   432.7840 C.3      141 DC      0.0000
    994 C4'       -6.6530     2.9053   432.1400 C.3      141 DC      0.0000
    995 O4'       -5.4614     2.4613   432.7771 O.3      141 DC      0.0000
    996 C3'       -6.5267     2.4974   430.6622 C.3      141 DC      0.0000
    997 O3'       -5.8693     3.4628   429.8509 O.3      141 DC      0.0000
    998 C2'       -5.5968     1.2510   430.8278 C.3      141 DC      0.0000
    999 C1'       -4.5708     2.0384   431.7234 C.3      141 DC      0.0000
   1000 N1        -3.4575     1.1574   431.9613 N.am     141 DC      0.0000
   1001 C2        -2.2297     1.7155   432.2785 C.2      141 DC      0.0000
   1002 O2        -1.9143     2.9024   432.4189 O.2      141 DC      0.0000
   1003 N3        -1.1730     0.8706   432.4767 N.2      141 DC      0.0000
   1004 C4        -1.2987    -0.4864   432.3607 C.2      141 DC      0.0000
   1005 N4        -0.2356    -1.2767   432.5768 N.pl3    141 DC      0.0000
   1006 C5        -2.5648    -1.0443   432.0310 C.2      141 DC      0.0000
   1007 C6        -3.5830    -0.1976   431.8393 C.2      141 DC      0.0000
   1008 H5'       -8.7097     3.1274   432.6725 H        141 DC      0.0000
   1009 H5''      -7.7338     2.2037   433.8426 H        141 DC      0.0000
   1010 H4'       -6.6725     3.9941   432.1867 H        141 DC      0.0000
   1011 H3'       -7.4936     2.2187   430.2432 H        141 DC      0.0000
   1012 H2'       -6.0747     0.4189   431.3449 H        141 DC      0.0000
   1013 H2''      -5.1567     0.9424   429.8796 H        141 DC      0.0000
   1014 H1'       -4.2214     2.9154   431.1785 H        141 DC      0.0000
   1015 H5        -2.6993    -2.1120   431.9389 H        141 DC      0.0000
   1016 H6        -4.5484    -0.6040   431.5761 H        141 DC      0.0000
   1017 H41        0.6565    -0.8687   432.8173 H        141 DC      0.0000
   1018 H42       -0.3276    -2.2795   432.4988 H        141 DC      0.0000
   1019 P         10.0072     0.4866   466.4500 P.3      151 DG      0.0000
   1020 OP1       11.3453    -0.1547   466.4485 O.co2    151 DG      0.0000
   1021 OP2        9.1661    -0.2456   467.5057 O.co2    151 DG      0.0000
   1022 O5'        9.9680     2.0672   466.6284 O.3      151 DG      0.0000
   1023 C5'        9.7731     3.0897   465.6284 C.3      151 DG      0.0000
   1024 C4'        8.7037     4.0391   466.1272 C.3      151 DG      0.0000
   1025 O4'        7.4130     3.6521   465.7081 O.3      151 DG      0.0000
   1026 C3'        8.6174     4.2884   467.6194 C.3      151 DG      0.0000
   1027 O3'        8.6811     5.7061   467.9314 O.3      151 DG      0.0000
   1028 C2'        7.3132     3.6388   468.0413 C.3      151 DG      0.0000
   1029 C1'        6.4761     3.6770   466.7857 C.3      151 DG      0.0000
   1030 N9         5.5560     2.5256   466.7566 N.ar     151 DG      0.0000
   1031 C8         5.8164     1.1951   466.9855 C.ar     151 DG      0.0000
   1032 N7         4.7604     0.4185   466.8958 N.ar     151 DG      0.0000
   1033 C5         3.7284     1.2980   466.5788 C.ar     151 DG      0.0000
   1034 C6         2.3456     1.0884   466.3529 C.2      151 DG      0.0000
   1035 O6         1.7220     0.0268   466.3741 O.2      151 DG      0.0000
   1036 N1         1.6240     2.2160   466.0714 N.am     151 DG      0.0000
   1037 C2         2.1531     3.3961   466.0107 C.2      151 DG      0.0000
   1038 N2         1.2683     4.2668   465.7139 N.pl3    151 DG      0.0000
   1039 N3         3.5013     3.7038   466.2194 N.2      151 DG      0.0000
   1040 C4         4.2020     2.5937   466.4920 C.ar     151 DG      0.0000
   1041 H5'       10.7045     3.6332   465.4697 H        151 DG      0.0000
   1042 H5''       9.4508     2.6321   464.6931 H        151 DG      0.0000
   1043 H4'        8.9046     5.0044   465.6625 H        151 DG      0.0000
   1044 H3'        9.4445     3.7784   468.1134 H        151 DG      0.0000
   1045 H2'        7.4777     2.6122   468.3683 H        151 DG      0.0000
   1046 H2''       6.8382     4.2185   468.8328 H        151 DG      0.0000
   1047 H1'        5.9044     4.6045   466.7537 H        151 DG      0.0000
   1048 H8         6.8025     0.8212   467.2186 H        151 DG      0.0000
   1049 H1         0.6325     2.1236   465.9030 H        151 DG      0.0000
   1050 H21        0.3096     3.9837   465.5696 H        151 DG      0.0000
   1051 H22        1.5268     5.2389   465.6235 H        151 DG      0.0000
   1052 P          8.3333     6.2814   469.3600 P.3      152 DT      0.0000
   1053 OP1        9.2249     7.3831   469.8716 O.co2    152 DT      0.0000
   1054 OP2        8.6276     5.0816   470.2786 O.co2    152 DT      0.0000
   1055 O5'        6.8130     6.5826   469.3885 O.3      152 DT      0.0000
   1056 C5'        6.2657     7.9221   469.2446 C.3      152 DT      0.0000
   1057 C4'        4.7647     7.7293   469.3021 C.3      152 DT      0.0000
   1058 O4'        4.3873     6.3982   469.0269 O.3      152 DT      0.0000
   1059 C3'        4.0969     8.0522   470.6148 C.3      152 DT      0.0000
   1060 O3'        3.2259     9.1773   470.4266 O.3      152 DT      0.0000
   1061 C2'        3.3173     6.7974   471.0070 C.3      152 DT      0.0000
   1062 C1'        3.0911     6.1739   469.6543 C.3      152 DT      0.0000
   1063 N1         2.8972     4.7270   469.7509 N.am     152 DT      0.0000
   1064 C2         1.6313     4.2461   469.5530 C.2      152 DT      0.0000
   1065 O2         0.6758     4.9814   469.3148 O.2      152 DT      0.0000
   1066 N3         1.4595     2.8904   469.6340 N.am     152 DT      0.0000
   1067 C4         2.4751     2.0350   469.8900 C.2      152 DT      0.0000
   1068 O4         2.1635     0.8161   469.9352 O.2      152 DT      0.0000
   1069 C5         3.7936     2.5563   470.0897 C.2      152 DT      0.0000
   1070 C7         4.9439     1.6447   470.3696 C.3      152 DT      0.0000
   1071 C6         3.9523     3.8836   470.0082 C.2      152 DT      0.0000
   1072 H5'        6.6025     8.5648   470.0580 H        152 DT      0.0000
   1073 H5''       6.5552     8.3468   468.2834 H        152 DT      0.0000
   1074 H4'        4.3188     8.3655   468.5375 H        152 DT      0.0000
   1075 H3'        4.8472     8.2804   471.3719 H        152 DT      0.0000
   1076 H2'        3.9039     6.1469   471.6558 H        152 DT      0.0000
   1077 H2''       2.3693     7.0606   471.4762 H        152 DT      0.0000
   1078 H1'        2.2824     6.6603   469.1090 H        152 DT      0.0000
   1079 H3         0.5332     2.5124   469.4966 H        152 DT      0.0000
   1080 H6         4.9374     4.3036   470.1485 H        152 DT      0.0000
   1081 H71        5.5375     1.5193   469.4640 H        152 DT      0.0000
   1082 H72        4.5677     0.6747   470.6943 H        152 DT      0.0000
   1083 H73        5.5656     2.0748   471.1549 H        152 DT      0.0000
   1084 P          3.1966    10.1807   471.7065 P.3      153 DG      0.0000
   1085 OP1        3.0793    11.5207   470.9915 O.co2    153 DG      0.0000
   1086 OP2        4.4271    10.0184   472.4601 O.co2    153 DG      0.0000
   1087 O5'        1.7875     9.6265   472.3161 O.3      153 DG      0.0000
   1088 C5'        0.7984     9.5012   471.2255 C.3      153 DG      0.0000
   1089 C4'       -0.3514     8.6898   471.7455 C.3      153 DG      0.0000
   1090 O4'       -0.2707     7.3012   471.5649 O.3      153 DG      0.0000
   1091 C3'       -0.6097     8.9276   473.2535 C.3      153 DG      0.0000
   1092 O3'       -1.9975     9.3095   473.4124 O.3      153 DG      0.0000
   1093 C2'       -0.1903     7.6277   473.9061 C.3      153 DG      0.0000
   1094 C1'       -0.5371     6.6112   472.8246 C.3      153 DG      0.0000
   1095 N9         0.2258     5.3696   472.9941 N.ar     153 DG      0.0000
   1096 C8         1.5423     5.2134   473.3303 C.ar     153 DG      0.0000
   1097 N7         1.9415     3.9636   473.4160 N.ar     153 DG      0.0000
   1098 C5         0.7939     3.2463   473.0860 C.ar     153 DG      0.0000
   1099 C6         0.5673     1.8433   472.9917 C.2      153 DG      0.0000
   1100 O6         1.3750     0.9222   473.1840 O.2      153 DG      0.0000
   1101 N1        -0.7216     1.4967   472.6566 N.am     153 DG      0.0000
   1102 C2        -1.6845     2.4330   472.4329 C.2      153 DG      0.0000
   1103 N2        -2.8800     1.9137   472.1241 N.pl3    153 DG      0.0000
   1104 N3        -1.5218     3.7522   472.5039 N.2      153 DG      0.0000
   1105 C4        -0.2634     4.0930   472.8305 C.ar     153 DG      0.0000
   1106 H5'        0.4499    10.4893   470.9250 H        153 DG      0.0000
   1107 H5''       1.2514     8.9949   470.3731 H        153 DG      0.0000
   1108 H4'       -1.2420     9.0266   471.2149 H        153 DG      0.0000
   1109 H3'        0.0313     9.7348   473.6083 H        153 DG      0.0000
   1110 H2'        0.8766     7.6216   474.1291 H        153 DG      0.0000
   1111 H2''      -0.7734     7.4440   474.8085 H        153 DG      0.0000
   1112 H1'       -1.6012     6.3825   472.8835 H        153 DG      0.0000
   1113 H8         2.2013     6.0498   473.5109 H        153 DG      0.0000
   1114 H1        -0.9604     0.5188   472.5743 H        153 DG      0.0000
   1115 H21       -2.9977     0.9118   472.0738 H        153 DG      0.0000
   1116 H22       -3.6638     2.5240   471.9414 H        153 DG      0.0000
   1117 P         -2.5748     9.7371   474.8008 P.3      154 DA      0.0000
   1118 OP1       -2.4744    11.1852   475.1562 O.co2    154 DA      0.0000
   1119 OP2       -1.5440     8.9567   475.6966 O.co2    154 DA      0.0000
   1120 O5'       -3.9462     8.9810   475.0499 O.3      154 DA      0.0000
   1121 C5'       -4.7900     8.4436   474.0209 C.3      154 DA      0.0000
   1122 C4'       -5.1614     7.0479   474.4952 C.3      154 DA      0.0000
   1123 O4'       -4.0477     6.1854   474.4048 O.3      154 DA      0.0000
   1124 C3'       -5.6933     6.9383   475.9243 C.3      154 DA      0.0000
   1125 O3'       -6.8854     6.1276   475.9765 O.3      154 DA      0.0000
   1126 C2'       -4.5057     6.3054   476.6597 C.3      154 DA      0.0000
   1127 C1'       -4.0415     5.3373   475.5821 C.3      154 DA      0.0000
   1128 N9        -2.6969     4.7988   475.8105 N.ar     154 DA      0.0000
   1129 C8        -1.5154     5.4496   476.0263 C.ar     154 DA      0.0000
   1130 N7        -0.4875     4.6472   476.1912 N.ar     154 DA      0.0000
   1131 C5        -1.0301     3.3786   476.0510 C.ar     154 DA      0.0000
   1132 C6        -0.4386     2.0973   476.0990 C.ar     154 DA      0.0000
   1133 N6         0.8590     1.8726   476.3188 N.pl3    154 DA      0.0000
   1134 N1        -1.2973     1.0518   475.9092 N.ar     154 DA      0.0000
   1135 C2        -2.6169     1.2573   475.6915 C.ar     154 DA      0.0000
   1136 N3        -3.2425     2.4323   475.6332 N.ar     154 DA      0.0000
   1137 C4        -2.3822     3.4497   475.8200 C.ar     154 DA      0.0000
   1138 H5'       -4.2529     8.3945   473.0737 H        154 DA      0.0000
   1139 H5''      -5.6864     9.0545   473.9131 H        154 DA      0.0000
   1140 H4'       -5.9315     6.6650   473.8254 H        154 DA      0.0000
   1141 H3'       -5.8971     7.9310   476.3257 H        154 DA      0.0000
   1142 H2'       -3.7392     7.0405   476.9052 H        154 DA      0.0000
   1143 H2''      -4.8360     5.7713   477.5506 H        154 DA      0.0000
   1144 H1'       -4.7599     4.5255   475.4676 H        154 DA      0.0000
   1145 H8        -1.4333     6.5260   476.0584 H        154 DA      0.0000
   1146 H2        -3.2266     0.3771   475.5501 H        154 DA      0.0000
   1147 H61        1.5905     2.5623   476.2214 H        154 DA      0.0000
   1148 H62        1.2205     0.9453   476.1473 H        154 DA      0.0000
   1149 P         -8.0465     6.3445   477.1180 P.3      155 DA      0.0000
   1150 OP1       -9.3471     6.7174   476.4509 O.co2    155 DA      0.0000
   1151 OP2       -7.4351     7.4017   477.9489 O.co2    155 DA      0.0000
   1152 O5'       -8.2889     4.8597   477.6488 O.3      155 DA      0.0000
   1153 C5'       -8.7569     3.7936   476.8245 C.3      155 DA      0.0000
   1154 C4'       -8.1627     2.4973   477.3468 C.3      155 DA      0.0000
   1155 O4'       -6.7645     2.5549   477.3750 O.3      155 DA      0.0000
   1156 C3'       -8.6194     2.0189   478.7141 C.3      155 DA      0.0000
   1157 O3'       -9.3128     0.7736   478.6363 O.3      155 DA      0.0000
   1158 C2'       -7.3291     1.9958   479.5428 C.3      155 DA      0.0000
   1159 C1'       -6.2427     1.8524   478.5490 C.3      155 DA      0.0000
   1160 N9        -4.9071     2.4159   478.8171 N.ar     155 DA      0.0000
   1161 C8        -4.5076     3.7253   478.9323 C.ar     155 DA      0.0000
   1162 N7        -3.2158     3.8795   479.1016 N.ar     155 DA      0.0000
   1163 C5        -2.7192     2.5805   479.0646 C.ar     155 DA      0.0000
   1164 C6        -1.3961     2.0679   479.1850 C.ar     155 DA      0.0000
   1165 N6        -0.3027     2.7953   479.3767 N.pl3    155 DA      0.0000
   1166 N1        -1.2775     0.7041   479.0869 N.ar     155 DA      0.0000
   1167 C2        -2.3801    -0.0775   478.8978 C.ar     155 DA      0.0000
   1168 N3        -3.6382     0.3341   478.7899 N.ar     155 DA      0.0000
   1169 C4        -3.7389     1.6754   478.8818 C.ar     155 DA      0.0000
   1170 H5'       -8.4397     3.9566   475.7945 H        155 DA      0.0000
   1171 H5''      -9.8448     3.7439   476.8705 H        155 DA      0.0000
   1172 H4'       -8.4316     1.7177   476.6341 H        155 DA      0.0000
   1173 H3'       -9.2913     2.7654   479.1373 H        155 DA      0.0000
   1174 H2'       -7.2164     2.9240   480.1031 H        155 DA      0.0000
   1175 H2''      -7.3330     1.1437   480.2224 H        155 DA      0.0000
   1176 H1'       -6.1325     0.7963   478.3030 H        155 DA      0.0000
   1177 H8        -5.1970     4.5555   478.8874 H        155 DA      0.0000
   1178 H2        -2.2120    -1.1421   478.8286 H        155 DA      0.0000
   1179 H61       -0.3412     3.7505   479.7029 H        155 DA      0.0000
   1180 H62        0.5986     2.3796   479.1899 H        155 DA      0.0000
   1181 P        -10.5465     0.3174   479.5925 P.3      156 DT      0.0000
   1182 OP1      -11.6452    -0.3763   478.7952 O.co2    156 DT      0.0000
   1183 OP2      -10.9937     1.4233   480.4131 O.co2    156 DT      0.0000
   1184 O5'       -9.8817    -0.9480   480.4062 O.3      156 DT      0.0000
   1185 C5'       -9.0557    -1.7537   479.4611 C.3      156 DT      0.0000
   1186 C4'       -7.8174    -2.0986   480.2488 C.3      156 DT      0.0000
   1187 O4'       -6.9459    -1.0071   480.4408 O.3      156 DT      0.0000
   1188 C3'       -8.1503    -2.6024   481.6654 C.3      156 DT      0.0000
   1189 O3'       -8.1289    -4.0178   481.6671 O.3      156 DT      0.0000
   1190 C2'       -7.1055    -1.9436   482.5627 C.3      156 DT      0.0000
   1191 C1'       -6.1068    -1.4414   481.5981 C.3      156 DT      0.0000
   1192 N1        -5.2510    -0.3157   481.9378 N.am     156 DT      0.0000
   1193 C2        -3.8917    -0.5789   482.0758 C.2      156 DT      0.0000
   1194 O2        -3.4824    -1.7293   481.9877 O.2      156 DT      0.0000
   1195 N3        -3.0559     0.4664   482.3297 N.am     156 DT      0.0000
   1196 C4        -3.4987     1.7526   482.4499 C.2      156 DT      0.0000
   1197 O4        -2.6569     2.6720   482.7051 O.2      156 DT      0.0000
   1198 C5        -4.9000     2.0027   482.2783 C.2      156 DT      0.0000
   1199 C7        -5.4367     3.4045   482.3658 C.3      156 DT      0.0000
   1200 C6        -5.7197     0.9685   482.0225 C.2      156 DT      0.0000
   1201 H5'       -9.5855    -2.6573   479.1595 H        156 DT      0.0000
   1202 H5''      -8.7938    -1.1588   478.5861 H        156 DT      0.0000
   1203 H4'       -7.2777    -2.8841   479.7197 H        156 DT      0.0000
   1204 H3'       -9.1434    -2.2545   481.9498 H        156 DT      0.0000
   1205 H2'       -7.5417    -1.1257   483.1361 H        156 DT      0.0000
   1206 H2''      -6.6559    -2.6797   483.2291 H        156 DT      0.0000
   1207 H1'       -5.4787    -2.2738   481.2807 H        156 DT      0.0000
   1208 H3        -2.0682     0.2826   482.4334 H        156 DT      0.0000
   1209 H6        -6.7740     1.1547   481.8804 H        156 DT      0.0000
   1210 H71       -4.6200     4.0941   482.5789 H        156 DT      0.0000
   1211 H72       -5.9023     3.6748   481.4180 H        156 DT      0.0000
   1212 H73       -6.1773     3.4609   483.1636 H        156 DT      0.0000
   1213 P         -8.5955    -5.0013   482.7737 P.3      157 DT      0.0000
   1214 OP1       -8.9198    -6.3886   482.1616 O.co2    157 DT      0.0000
   1215 OP2       -9.7907    -4.3833   483.4037 O.co2    157 DT      0.0000
   1216 O5'       -7.2826    -5.2652   483.6560 O.3      157 DT      0.0000
   1217 C5'       -6.2847    -6.0452   482.9443 C.3      157 DT      0.0000
   1218 C4'       -4.9695    -5.8691   483.6204 C.3      157 DT      0.0000
   1219 O4'       -4.4861    -4.5318   483.5971 O.3      157 DT      0.0000
   1220 C3'       -4.9446    -6.3230   485.0871 C.3      157 DT      0.0000
   1221 O3'       -3.7648    -7.0582   485.3511 O.3      157 DT      0.0000
   1222 C2'       -4.8900    -4.9633   485.8234 C.3      157 DT      0.0000
   1223 C1'       -3.8780    -4.2887   484.9198 C.3      157 DT      0.0000
   1224 N1        -3.7742    -2.8721   485.2175 N.am     157 DT      0.0000
   1225 C2        -2.5141    -2.2989   485.2723 C.2      157 DT      0.0000
   1226 O2        -1.5266    -3.0108   485.0839 O.2      157 DT      0.0000
   1227 N3        -2.4235    -0.9616   485.5383 N.am     157 DT      0.0000
   1228 C4        -3.5233    -0.1868   485.7453 C.2      157 DT      0.0000
   1229 O4        -3.3624     1.0471   485.9686 O.2      157 DT      0.0000
   1230 C5        -4.8148    -0.7864   485.6802 C.2      157 DT      0.0000
   1231 C7        -6.0747     0.0019   485.8901 C.3      157 DT      0.0000
   1232 C6        -4.8854    -2.1010   485.4191 C.2      157 DT      0.0000
   1233 H5'       -6.5653    -7.0984   482.9567 H        157 DT      0.0000
   1234 H5''      -6.2155    -5.6973   481.9136 H        157 DT      0.0000
   1235 H4'       -4.2465    -6.4818   483.0819 H        157 DT      0.0000
   1236 H3'       -5.8390    -6.8880   485.3495 H        157 DT      0.0000
   1237 H2'       -5.8526    -4.4521   485.8221 H        157 DT      0.0000
   1238 H2''      -4.5031    -5.0766   486.8361 H        157 DT      0.0000
   1239 H1'       -2.9050    -4.7741   484.9954 H        157 DT      0.0000
   1240 H3        -1.5097    -0.5338   485.5827 H        157 DT      0.0000
   1241 H6        -5.8578    -2.5680   485.3660 H        157 DT      0.0000
   1242 H71       -5.8232     1.0437   486.0890 H        157 DT      0.0000
   1243 H72       -6.6935    -0.0577   484.9948 H        157 DT      0.0000
   1244 H73       -6.6226    -0.4080   486.7385 H        157 DT      0.0000
   1245 P         -3.4149    -8.4621   485.9591 P.3      158 DC      0.0000
   1246 OP1       -2.9254    -9.4213   484.8911 O.co2    158 DC      0.0000
   1247 OP2       -4.6225    -8.8807   486.6940 O.co2    158 DC      0.0000
   1248 O5'       -2.0945    -7.9782   486.7851 O.3      158 DC      0.0000
   1249 C5'       -1.2792    -7.2958   485.7628 C.3      158 DC      0.0000
   1250 C4'       -0.0649    -6.7509   486.4593 C.3      158 DC      0.0000
   1251 O4'       -0.1567    -5.3820   486.7062 O.3      158 DC      0.0000
   1252 C3'        0.3159    -7.4660   487.7508 C.3      158 DC      0.0000
   1253 O3'        1.6499    -7.9504   487.6711 O.3      158 DC      0.0000
   1254 C2'       -0.0059    -6.3991   488.7995 C.3      158 DC      0.0000
   1255 C1'        0.2003    -5.1126   488.1031 C.3      158 DC      0.0000
   1256 N1        -0.7180    -4.0188   488.4352 N.am     158 DC      0.0000
   1257 C2        -0.1261    -2.7838   488.6910 C.2      158 DC      0.0000
   1258 O2         1.1012    -2.6480   488.6955 O.2      158 DC      0.0000
   1259 N3        -0.9595    -1.7275   488.9649 N.2      158 DC      0.0000
   1260 C4        -2.3160    -1.8694   488.9549 C.2      158 DC      0.0000
   1261 N4        -3.0370    -0.7886   489.2318 N.pl3    158 DC      0.0000
   1262 C5        -2.9023    -3.1238   488.6769 C.2      158 DC      0.0000
   1263 C6        -2.0702    -4.1519   488.4121 C.2      158 DC      0.0000
   1264 H5'       -0.9806    -8.0032   484.9892 H        158 DC      0.0000
   1265 H5''      -1.8490    -6.4797   485.3186 H        158 DC      0.0000
   1266 H4'        0.7714    -6.8858   485.7734 H        158 DC      0.0000
   1267 H3'       -0.3561    -8.3121   487.8941 H        158 DC      0.0000
   1268 H2'       -1.0380    -6.4918   489.1374 H        158 DC      0.0000
   1269 H2''       0.6767    -6.4837   489.6451 H        158 DC      0.0000
   1270 H1'        1.2377    -4.7880   488.1841 H        158 DC      0.0000
   1271 H5        -3.9743    -3.2547   488.6763 H        158 DC      0.0000
   1272 H6        -2.4941    -5.1161   488.1731 H        158 DC      0.0000
   1273 H41       -2.5768     0.0881   489.4310 H        158 DC      0.0000
   1274 H42       -4.0454    -0.8436   489.2431 H        158 DC      0.0000
   1275 P          2.3207    -9.0805   488.6231 P.3      159 DA      0.0000
   1276 OP1        3.4445    -9.7187   487.8294 O.co2    159 DA      0.0000
   1277 OP2        1.2712   -10.0608   488.9687 O.co2    159 DA      0.0000
   1278 O5'        2.8715    -8.2305   489.9201 O.3      159 DA      0.0000
   1279 C5'        3.7296    -7.0861   489.6249 C.3      159 DA      0.0000
   1280 C4'        4.0714    -6.3525   490.8802 C.3      159 DA      0.0000
   1281 O4'        3.3004    -5.1718   491.1223 O.3      159 DA      0.0000
   1282 C3'        3.8747    -7.1416   492.1854 C.3      159 DA      0.0000
   1283 O3'        4.6446    -6.5174   493.2154 O.3      159 DA      0.0000
   1284 C2'        2.3677    -6.8969   492.4000 C.3      159 DA      0.0000
   1285 C1'        2.4100    -5.3761   492.2168 C.3      159 DA      0.0000
   1286 N9         1.0520    -4.8675   492.1224 N.ar     159 DA      0.0000
   1287 C8        -0.1400    -5.5273   492.0066 C.ar     159 DA      0.0000
   1288 N7        -1.2082    -4.7504   491.9880 N.ar     159 DA      0.0000
   1289 C5        -0.6731    -3.4746   492.0955 C.ar     159 DA      0.0000
   1290 C6        -1.2752    -2.1926   492.1301 C.ar     159 DA      0.0000
   1291 N6        -2.5749    -1.9730   492.0448 N.pl3    159 DA      0.0000
   1292 N1        -0.4250    -1.1323   492.2626 N.ar     159 DA      0.0000
   1293 C2         0.9300    -1.3141   492.3428 C.ar     159 DA      0.0000
   1294 N3         1.5676    -2.4820   492.3130 N.ar     159 DA      0.0000
   1295 C4         0.7082    -3.5232   492.1900 C.ar     159 DA      0.0000
   1296 H5'        4.6474    -7.4379   489.1538 H        159 DA      0.0000
   1297 H5''       3.2101    -6.4122   488.9436 H        159 DA      0.0000
   1298 H4'        5.1198    -6.0604   490.8213 H        159 DA      0.0000
   1299 H3'        4.1123    -8.1993   492.0718 H        159 DA      0.0000
   1300 H2'        1.7520    -7.3922   491.6493 H        159 DA      0.0000
   1301 H2''       2.0598    -7.1681   493.4099 H        159 DA      0.0000
   1302 H1'        2.8682    -4.9442   493.1064 H        159 DA      0.0000
   1303 H8        -0.2035    -6.6031   491.9356 H        159 DA      0.0000
   1304 H2         1.5380    -0.4268   492.4393 H        159 DA      0.0000
   1305 H61       -3.1668    -1.1747   492.2249 H        159 DA      0.0000
   1306 H62       -3.0908    -2.7822   491.7301 H        159 DA      0.0000
   1307 P          6.2170    -6.7787   493.3558 P.3      160 DC      0.0000
   1308 OP1        6.8372    -7.3137   492.1107 O.co2    160 DC      0.0000
   1309 OP2        6.2762    -7.7505   494.4987 O.co2    160 DC      0.0000
   1310 O5'        6.8029    -5.3326   493.6390 O.3      160 DC      0.0000
   1311 C5'        7.0618    -4.3942   492.5513 C.3      160 DC      0.0000
   1312 C4'        6.8705    -3.0465   493.2562 C.3      160 DC      0.0000
   1313 O4'        5.5020    -2.9261   493.5682 O.3      160 DC      0.0000
   1314 C3'        7.6442    -2.9216   494.5661 C.3      160 DC      0.0000
   1315 O3'        8.4457    -1.7205   494.6340 O.3      160 DC      0.0000
   1316 C2'        6.5559    -2.9877   495.6483 C.3      160 DC      0.0000
   1317 C1'        5.3952    -2.3788   494.9722 C.3      160 DC      0.0000
   1318 N1         4.0268    -2.7484   495.3250 N.am     160 DC      0.0000
   1319 C2         3.1055    -1.7031   495.2981 C.2      160 DC      0.0000
   1320 O2         3.4300    -0.5405   495.0912 O.2      160 DC      0.0000
   1321 N3         1.8049    -2.0099   495.5512 N.2      160 DC      0.0000
   1322 C4         1.3884    -3.2780   495.7846 C.2      160 DC      0.0000
   1323 N4         0.0886    -3.4527   496.0155 N.pl3    160 DC      0.0000
   1324 C5         2.3362    -4.3381   495.7911 C.2      160 DC      0.0000
   1325 C6         3.6178    -4.0278   495.5417 C.2      160 DC      0.0000
   1326 H5'        8.0760    -4.5013   492.1664 H        160 DC      0.0000
   1327 H5''       6.3309    -4.5187   491.7523 H        160 DC      0.0000
   1328 H4'        7.1622    -2.2400   492.5836 H        160 DC      0.0000
   1329 H3'        8.2982    -3.7872   494.6720 H        160 DC      0.0000
   1330 H2'        6.3482    -4.0186   495.9353 H        160 DC      0.0000
   1331 H2''       6.8448    -2.3985   496.5186 H        160 DC      0.0000
   1332 H1'        5.4975    -1.2937   494.9589 H        160 DC      0.0000
   1333 H5         2.0354    -5.3562   495.9896 H        160 DC      0.0000
   1334 H6         4.3499    -4.8212   495.5120 H        160 DC      0.0000
   1335 H41       -0.5373    -2.6602   496.0045 H        160 DC      0.0000
   1336 H42       -0.2713    -4.3780   496.2017 H        160 DC      0.0000
   1337 P         -7.9400     3.0005   497.5935 P.3      160 DG      0.0000
   1338 OP1       -9.3513     3.4623   497.7723 O.co2    160 DG      0.0000
   1339 OP2       -7.7917     1.9419   496.5087 O.co2    160 DG      0.0000
   1340 O5'       -6.9604     4.3070   497.3863 O.3      160 DG      0.0000
   1341 C5'       -6.0773     4.7184   498.4821 C.3      160 DG      0.0000
   1342 C4'       -4.7658     5.1757   497.8478 C.3      160 DG      0.0000
   1343 O4'       -3.8365     4.1310   497.7520 O.3      160 DG      0.0000
   1344 C3'       -4.9111     5.7511   496.4415 C.3      160 DG      0.0000
   1345 O3'       -4.0684     6.8958   496.1745 O.3      160 DG      0.0000
   1346 C2'       -4.5453     4.5587   495.5392 C.3      160 DG      0.0000
   1347 C1'       -3.4483     3.9050   496.3630 C.3      160 DG      0.0000
   1348 N9        -3.3697     2.4598   496.0897 N.ar     160 DG      0.0000
   1349 C8        -4.4071     1.5717   495.9330 C.ar     160 DG      0.0000
   1350 N7        -4.0246     0.3416   495.7146 N.ar     160 DG      0.0000
   1351 C5        -2.6371     0.4189   495.7394 C.ar     160 DG      0.0000
   1352 C6        -1.6394    -0.5800   495.5830 C.2      160 DG      0.0000
   1353 O6        -1.8271    -1.7891   495.3861 O.2      160 DG      0.0000
   1354 N1        -0.3518    -0.1111   495.6699 N.am     160 DG      0.0000
   1355 C2        -0.0615     1.1945   495.8906 C.2      160 DG      0.0000
   1356 N2         1.2314     1.5009   495.9539 N.pl3    160 DG      0.0000
   1357 N3        -0.9611     2.1731   496.0483 N.2      160 DG      0.0000
   1358 C4        -2.2243     1.7124   495.9650 C.ar     160 DG      0.0000
   1359 H5'       -6.5296     5.5384   499.0399 H        160 DG      0.0000
   1360 H5''      -5.8934     3.8746   499.1470 H        160 DG      0.0000
   1361 H4'       -4.3368     5.9494   498.4845 H        160 DG      0.0000
   1362 H3'       -5.9525     6.0242   496.2710 H        160 DG      0.0000
   1363 H2'       -5.3931     3.8887   495.3965 H        160 DG      0.0000
   1364 H2''      -4.1573     4.9028   494.5804 H        160 DG      0.0000
   1365 H1'       -2.4890     4.3801   496.1578 H        160 DG      0.0000
   1366 H8        -5.4454     1.8644   495.9858 H        160 DG      0.0000
   1367 H1         0.4102    -0.7657   495.5651 H        160 DG      0.0000
   1368 H21        1.9278     0.7786   495.8388 H        160 DG      0.0000
   1369 H22        1.5166     2.4560   496.1171 H        160 DG      0.0000
   1370 P         -3.6051     7.0757   494.6510 P.3      159 DT      0.0000
   1371 OP1       -3.3473     8.5060   494.2601 O.co2    159 DT      0.0000
   1372 OP2       -4.7951     6.5332   493.9505 O.co2    159 DT      0.0000
   1373 O5'       -2.2577     6.2185   494.5201 O.3      159 DT      0.0000
   1374 C5'       -1.0015     6.9201   494.7877 C.3      159 DT      0.0000
   1375 C4'        0.1071     6.2216   494.0307 C.3      159 DT      0.0000
   1376 O4'       -0.0452     4.8136   494.0034 O.3      159 DT      0.0000
   1377 C3'        0.2007     6.6553   492.5760 C.3      159 DT      0.0000
   1378 O3'        1.5529     6.7655   492.0809 O.3      159 DT      0.0000
   1379 C2'       -0.5780     5.5787   491.8531 C.3      159 DT      0.0000
   1380 C1'       -0.1013     4.3635   492.6312 C.3      159 DT      0.0000
   1381 N1        -1.1379     3.3302   492.4799 N.am     159 DT      0.0000
   1382 C2        -0.7105     2.0106   492.5867 C.2      159 DT      0.0000
   1383 O2         0.4737     1.7542   492.7764 O.2      159 DT      0.0000
   1384 N3        -1.6605     1.0353   492.4665 N.am     159 DT      0.0000
   1385 C4        -2.9730     1.3301   492.2489 C.2      159 DT      0.0000
   1386 O4        -3.7860     0.3522   492.1514 O.2      159 DT      0.0000
   1387 C5        -3.3804     2.6906   492.1426 C.2      159 DT      0.0000
   1388 C7        -4.8259     3.0275   491.9136 C.3      159 DT      0.0000
   1389 C6        -2.4482     3.6392   492.2643 C.2      159 DT      0.0000
   1390 H5'       -1.0796     7.9548   494.4540 H        159 DT      0.0000
   1391 H5''      -0.7880     6.8948   495.8563 H        159 DT      0.0000
   1392 H4'        1.0537     6.4540   494.5186 H        159 DT      0.0000
   1393 H3'       -0.3071     7.6118   492.4520 H        159 DT      0.0000
   1394 H2'       -1.6544     5.7240   491.9447 H        159 DT      0.0000
   1395 H2''      -0.2793     5.5153   490.8067 H        159 DT      0.0000
   1396 H1'        0.8702     4.0151   492.2806 H        159 DT      0.0000
   1397 H3        -1.3815     0.0674   492.5412 H        159 DT      0.0000
   1398 H6        -2.7395     4.6765   492.1902 H        159 DT      0.0000
   1399 H71       -5.4073     2.1082   491.8449 H        159 DT      0.0000
   1400 H72       -5.1945     3.6290   492.7445 H        159 DT      0.0000
   1401 H73       -4.9252     3.5905   490.9855 H        159 DT      0.0000
   1402 P          1.6704     8.2266   491.3025 P.3      158 DG      0.0000
   1403 OP1        2.1901     9.3235   492.1737 O.co2    158 DG      0.0000
   1404 OP2        0.2502     8.3735   490.8969 O.co2    158 DG      0.0000
   1405 O5'        2.7989     7.8903   490.2217 O.3      158 DG      0.0000
   1406 C5'        4.1855     7.8585   490.6451 C.3      158 DG      0.0000
   1407 C4'        4.6981     6.4955   490.1974 C.3      158 DG      0.0000
   1408 O4'        3.7228     5.5087   490.4681 O.3      158 DG      0.0000
   1409 C3'        5.0385     6.4075   488.7097 C.3      158 DG      0.0000
   1410 O3'        6.3755     5.9888   488.5012 O.3      158 DG      0.0000
   1411 C2'        3.9702     5.4957   488.1330 C.3      158 DG      0.0000
   1412 C1'        3.5819     4.6450   489.3191 C.3      158 DG      0.0000
   1413 N9         2.1998     4.1739   489.1955 N.ar     158 DG      0.0000
   1414 C8         1.0625     4.9140   489.0367 C.ar     158 DG      0.0000
   1415 N7        -0.0295     4.1932   488.9586 N.ar     158 DG      0.0000
   1416 C5         0.4197     2.8830   489.0961 C.ar     158 DG      0.0000
   1417 C6        -0.2695     1.6416   489.1056 C.2      158 DG      0.0000
   1418 O6        -1.4795     1.4654   489.0065 O.2      158 DG      0.0000
   1419 N1         0.5337     0.5468   489.2546 N.am     158 DG      0.0000
   1420 C2         1.8970     0.6541   489.3874 C.2      158 DG      0.0000
   1421 N2         2.5610    -0.4942   489.5231 N.pl3    158 DG      0.0000
   1422 N3         2.6058     1.7876   489.3917 N.2      158 DG      0.0000
   1423 C4         1.7965     2.8637   489.2410 C.ar     158 DG      0.0000
   1424 H5'        4.7515     8.6576   490.1664 H        158 DG      0.0000
   1425 H5''       4.2505     7.9480   491.7295 H        158 DG      0.0000
   1426 H4'        5.5948     6.2596   490.7704 H        158 DG      0.0000
   1427 H3'        4.9172     7.3980   488.2711 H        158 DG      0.0000
   1428 H2'        3.1195     6.0703   487.7666 H        158 DG      0.0000
   1429 H2''       4.3846     4.8764   487.3374 H        158 DG      0.0000
   1430 H1'        4.2591     3.7953   489.4061 H        158 DG      0.0000
   1431 H8         1.0631     5.9925   488.9806 H        158 DG      0.0000
   1432 H1         0.1120    -0.3708   489.2674 H        158 DG      0.0000
   1433 H21        2.0592    -1.3707   489.5241 H        158 DG      0.0000
   1434 H22        3.5658    -0.4875   489.6249 H        158 DG      0.0000
   1435 P          7.0743     4.8671   487.6349 P.3      157 DA      0.0000
   1436 OP1        8.2386     4.2451   488.4162 O.co2    157 DA      0.0000
   1437 OP2        7.5697     5.5579   486.4422 O.co2    157 DA      0.0000
   1438 O5'        5.9757     3.6768   487.4601 O.3      157 DA      0.0000
   1439 C5'        5.9808     2.7582   488.6165 C.3      157 DA      0.0000
   1440 C4'        6.3851     1.4039   488.0887 C.3      157 DA      0.0000
   1441 O4'        5.2821     0.5623   487.8664 O.3      157 DA      0.0000
   1442 C3'        7.1148     1.4805   486.7482 C.3      157 DA      0.0000
   1443 O3'        8.2022     0.5899   486.6730 O.3      157 DA      0.0000
   1444 C2'        5.9839     1.2995   485.7516 C.3      157 DA      0.0000
   1445 C1'        4.8924     0.5618   486.4755 C.3      157 DA      0.0000
   1446 N9         3.5753     1.1812   486.2500 N.ar     157 DA      0.0000
   1447 C8         3.2639     2.5107   486.0636 C.ar     157 DA      0.0000
   1448 N7         1.9868     2.7455   485.8677 N.ar     157 DA      0.0000
   1449 C5         1.4144     1.4826   485.9546 C.ar     157 DA      0.0000
   1450 C6         0.0702     1.0552   485.8489 C.ar     157 DA      0.0000
   1451 N6        -0.9466     1.8719   485.6365 N.pl3    157 DA      0.0000
   1452 N1        -0.1437    -0.2839   485.9727 N.ar     157 DA      0.0000
   1453 C2         0.8875    -1.1508   486.1972 C.ar     157 DA      0.0000
   1454 N3         2.1704    -0.8142   486.3131 N.ar     157 DA      0.0000
   1455 C4         2.3705     0.5190   486.1769 C.ar     157 DA      0.0000
   1456 H5'        6.6964     3.0992   489.3646 H        157 DA      0.0000
   1457 H5''       4.9835     2.7045   489.0532 H        157 DA      0.0000
   1458 H4'        7.0434     0.9294   488.8164 H        157 DA      0.0000
   1459 H3'        7.5023     2.4930   486.6351 H        157 DA      0.0000
   1460 H2'        6.3264     0.7194   484.8948 H        157 DA      0.0000
   1461 H2''       5.6199     2.2723   485.4211 H        157 DA      0.0000
   1462 H1'        4.8644    -0.4673   486.1173 H        157 DA      0.0000
   1463 H8         4.0076     3.2937   486.0775 H        157 DA      0.0000
   1464 H2         0.6413    -2.1984   486.2884 H        157 DA      0.0000
   1465 H61       -1.8777     1.6400   485.9519 H        157 DA      0.0000
   1466 H62       -0.7900     2.7432   485.1502 H        157 DA      0.0000
   1467 P          8.7394    -0.3072   485.4884 P.3      156 DA      0.0000
   1468 OP1        9.8071    -1.3137   486.0083 O.co2    156 DA      0.0000
   1469 OP2        9.3968     0.6595   484.5547 O.co2    156 DA      0.0000
   1470 O5'        7.5371    -1.1925   484.9857 O.3      156 DA      0.0000
   1471 C5'        7.4053    -2.5548   485.4416 C.3      156 DA      0.0000
   1472 C4'        6.1996    -3.1407   484.7396 C.3      156 DA      0.0000
   1473 O4'        5.1193    -2.2597   484.6189 O.3      156 DA      0.0000
   1474 C3'        6.5030    -3.6523   483.3321 C.3      156 DA      0.0000
   1475 O3'        6.3554    -5.0845   483.3007 O.3      156 DA      0.0000
   1476 C2'        5.5984    -2.8081   482.4326 C.3      156 DA      0.0000
   1477 C1'        4.4498    -2.4607   483.3303 C.3      156 DA      0.0000
   1478 N9         3.7413    -1.2208   483.0307 N.ar     156 DA      0.0000
   1479 C8         4.2462     0.0483   482.8360 C.ar     156 DA      0.0000
   1480 N7         3.3226     0.9606   482.6306 N.ar     156 DA      0.0000
   1481 C5         2.1340     0.2610   482.7051 C.ar     156 DA      0.0000
   1482 C6         0.7883     0.6704   482.5716 C.ar     156 DA      0.0000
   1483 N6         0.4162     1.9234   482.3284 N.pl3    156 DA      0.0000
   1484 N1        -0.1429    -0.3259   482.7204 N.ar     156 DA      0.0000
   1485 C2         0.2038    -1.6027   482.9730 C.ar     156 DA      0.0000
   1486 N3         1.4513    -2.0617   483.1118 N.ar     156 DA      0.0000
   1487 C4         2.3664    -1.0779   482.9646 C.ar     156 DA      0.0000
   1488 H5'        8.2997    -3.1231   485.1864 H        156 DA      0.0000
   1489 H5''       7.2506    -2.5715   486.5204 H        156 DA      0.0000
   1490 H4'        5.8610    -3.9923   485.3298 H        156 DA      0.0000
   1491 H3'        7.5395    -3.4107   483.0971 H        156 DA      0.0000
   1492 H2'        6.1141    -1.9099   482.0927 H        156 DA      0.0000
   1493 H2''       5.2530    -3.3946   481.5812 H        156 DA      0.0000
   1494 H1'        3.7494    -3.2937   483.3914 H        156 DA      0.0000
   1495 H8         5.3028     0.2714   482.8510 H        156 DA      0.0000
   1496 H2        -0.5978    -2.3196   483.0720 H        156 DA      0.0000
   1497 H61       -0.5206     2.1602   482.6224 H        156 DA      0.0000
   1498 H62        1.0273     2.5916   481.8811 H        156 DA      0.0000
   1499 P          6.6107    -5.8647   481.9157 P.3      155 DT      0.0000
   1500 OP1        6.7642    -7.3534   481.9738 O.co2    155 DT      0.0000
   1501 OP2        7.7996    -5.1173   481.4031 O.co2    155 DT      0.0000
   1502 O5'        5.1276    -5.5752   481.2126 O.3      155 DT      0.0000
   1503 C5'        4.0874    -5.7295   482.2249 C.3      155 DT      0.0000
   1504 C4'        2.7875    -6.0122   481.5419 C.3      155 DT      0.0000
   1505 O4'        1.9934    -4.8780   481.3615 O.3      155 DT      0.0000
   1506 C3'        2.9310    -6.6752   480.1807 C.3      155 DT      0.0000
   1507 O3'        1.9066    -7.6407   479.9134 O.3      155 DT      0.0000
   1508 C2'        2.9013    -5.4282   479.2873 C.3      155 DT      0.0000
   1509 C1'        1.7936    -4.6190   479.9274 C.3      155 DT      0.0000
   1510 N1         1.9847    -3.1746   479.6974 N.am     155 DT      0.0000
   1511 C2         0.8505    -2.3913   479.5758 C.2      155 DT      0.0000
   1512 O2        -0.2753    -2.8904   479.6125 O.2      155 DT      0.0000
   1513 N3         1.0161    -1.0432   479.4084 N.am     155 DT      0.0000
   1514 C4         2.2488    -0.4706   479.3598 C.2      155 DT      0.0000
   1515 O4         2.3085     0.7816   479.1743 O.2      155 DT      0.0000
   1516 C5         3.4018    -1.2913   479.5082 C.2      155 DT      0.0000
   1517 C7         4.7864    -0.6904   479.4561 C.3      155 DT      0.0000
   1518 C6         3.2230    -2.6051   479.6812 C.2      155 DT      0.0000
   1519 H5'        4.3408    -6.5575   482.8870 H        155 DT      0.0000
   1520 H5''       4.0030    -4.8105   482.8049 H        155 DT      0.0000
   1521 H4'        2.2303    -6.6991   482.1790 H        155 DT      0.0000
   1522 H3'        3.9086    -7.1518   480.1087 H        155 DT      0.0000
   1523 H2'        3.8514    -4.8948   479.3179 H        155 DT      0.0000
   1524 H2''       2.6416    -5.6943   478.2627 H        155 DT      0.0000
   1525 H1'        0.8106    -4.9512   479.5934 H        155 DT      0.0000
   1526 H3         0.1991    -0.4563   479.3182 H        155 DT      0.0000
   1527 H6         4.0893    -3.2365   479.8126 H        155 DT      0.0000
   1528 H71        5.1932    -0.8006   478.4509 H        155 DT      0.0000
   1529 H72        5.4323    -1.2048   480.1677 H        155 DT      0.0000
   1530 H73        4.7332     0.3676   479.7127 H        155 DT      0.0000
   1531 P          1.9407    -8.3140   478.4235 P.3      154 DT      0.0000
   1532 OP1        2.2688    -9.8009   478.5715 O.co2    154 DT      0.0000
   1533 OP2        3.0847    -7.6082   477.7536 O.co2    154 DT      0.0000
   1534 O5'        0.5538    -8.0815   477.7714 O.3      154 DT      0.0000
   1535 C5'       -0.6558    -7.9800   478.5228 C.3      154 DT      0.0000
   1536 C4'       -1.5991    -7.0934   477.7748 C.3      154 DT      0.0000
   1537 O4'       -1.3225    -5.7201   477.7178 O.3      154 DT      0.0000
   1538 C3'       -1.9128    -7.4628   476.3088 C.3      154 DT      0.0000
   1539 O3'       -3.2835    -7.0657   476.2050 O.3      154 DT      0.0000
   1540 C2'       -0.9789    -6.5147   475.5450 C.3      154 DT      0.0000
   1541 C1'       -1.3148    -5.2574   476.3208 C.3      154 DT      0.0000
   1542 N1        -0.3464    -4.1624   476.2146 N.am     154 DT      0.0000
   1543 C2        -0.8953    -2.8730   476.2140 C.2      154 DT      0.0000
   1544 O2        -2.1152    -2.7009   476.2570 O.2      154 DT      0.0000
   1545 N3        -0.0208    -1.8259   476.1605 N.am     154 DT      0.0000
   1546 C4         1.3305    -1.9953   476.1008 C.2      154 DT      0.0000
   1547 O4         2.0583    -0.9591   476.0384 O.2      154 DT      0.0000
   1548 C5         1.8607    -3.3143   476.1090 C.2      154 DT      0.0000
   1549 C7         3.3602    -3.5171   476.0476 C.3      154 DT      0.0000
   1550 C6         1.0016    -4.3356   476.1755 C.2      154 DT      0.0000
   1551 H5'       -1.0979    -8.9688   478.6450 H        154 DT      0.0000
   1552 H5''      -0.4448    -7.5488   479.5014 H        154 DT      0.0000
   1553 H4'       -2.5497    -7.1742   478.3021 H        154 DT      0.0000
   1554 H3'       -1.7462    -8.5154   476.0801 H        154 DT      0.0000
   1555 H2'       -1.2387    -6.4348   474.4895 H        154 DT      0.0000
   1556 H2''       0.0661    -6.7953   475.6766 H        154 DT      0.0000
   1557 H1'       -2.3072    -4.9033   476.0417 H        154 DT      0.0000
   1558 H3        -0.3908    -0.8861   476.1654 H        154 DT      0.0000
   1559 H6         1.3947    -5.3412   476.1992 H        154 DT      0.0000
   1560 H71        3.8568    -2.5480   475.9988 H        154 DT      0.0000
   1561 H72        3.6118    -4.0991   475.1610 H        154 DT      0.0000
   1562 H73        3.6915    -4.0506   476.9385 H        154 DT      0.0000
   1563 P         -4.2702    -7.4165   475.0588 P.3      153 DC      0.0000
   1564 OP1       -5.5751    -7.9327   475.6679 O.co2    153 DC      0.0000
   1565 OP2       -3.6132    -8.5103   474.2769 O.co2    153 DC      0.0000
   1566 O5'       -4.4188    -5.9724   474.3194 O.3      153 DC      0.0000
   1567 C5'       -5.2269    -4.9879   475.0439 C.3      153 DC      0.0000
   1568 C4'       -5.9294    -4.1675   473.9934 C.3      153 DC      0.0000
   1569 O4'       -5.2773    -2.9433   473.7481 O.3      153 DC      0.0000
   1570 C3'       -6.0767    -4.8430   472.6289 C.3      153 DC      0.0000
   1571 O3'       -7.2693    -4.5002   471.9197 O.3      153 DC      0.0000
   1572 C2'       -4.7827    -4.3841   471.9428 C.3      153 DC      0.0000
   1573 C1'       -4.6045    -2.9689   472.4894 C.3      153 DC      0.0000
   1574 N1        -3.1512    -2.7048   472.6072 N.am     153 DC      0.0000
   1575 C2        -2.7493    -1.3699   472.6245 C.2      153 DC      0.0000
   1576 O2        -3.5769    -0.4509   472.5558 O.2      153 DC      0.0000
   1577 N3        -1.4073    -1.1212   472.7277 N.2      153 DC      0.0000
   1578 C4        -0.4906    -2.1215   472.7984 C.2      153 DC      0.0000
   1579 N4         0.8076    -1.8281   472.9004 N.pl3    153 DC      0.0000
   1580 C5        -0.9277    -3.4753   472.7733 C.2      153 DC      0.0000
   1581 C6        -2.2461    -3.7188   472.6797 C.2      153 DC      0.0000
   1582 H5'       -5.9551    -5.4912   475.6799 H        153 DC      0.0000
   1583 H5''      -4.5831    -4.3484   475.6478 H        153 DC      0.0000
   1584 H4'       -6.9301    -3.9426   474.3621 H        153 DC      0.0000
   1585 H3'       -6.0426    -5.9241   472.7631 H        153 DC      0.0000
   1586 H2'       -4.8929    -4.3767   470.8584 H        153 DC      0.0000
   1587 H2''      -3.9464    -5.0175   472.2388 H        153 DC      0.0000
   1588 H1'       -5.0595    -2.2481   471.8100 H        153 DC      0.0000
   1589 H5        -0.2175    -4.2872   472.8281 H        153 DC      0.0000
   1590 H6        -2.5949    -4.7408   472.6616 H        153 DC      0.0000
   1591 H41        1.1073    -0.8639   472.9211 H        153 DC      0.0000
   1592 H42        1.4902    -2.5705   472.9567 H        153 DC      0.0000
   1593 P         -7.3998    -4.3062   470.2877 P.3      152 DA      0.0000
   1594 OP1       -8.8466    -4.5199   469.8982 O.co2    152 DA      0.0000
   1595 OP2       -6.4466    -5.2967   469.7176 O.co2    152 DA      0.0000
   1596 O5'       -7.0642    -2.7543   470.1221 O.3      152 DA      0.0000
   1597 C5'       -8.0724    -1.7751   470.5876 C.3      152 DA      0.0000
   1598 C4'       -7.7652    -0.5734   469.7103 C.3      152 DA      0.0000
   1599 O4'       -6.4370    -0.1056   469.9776 O.3      152 DA      0.0000
   1600 C3'       -7.7666    -0.8983   468.2059 C.3      152 DA      0.0000
   1601 O3'       -7.8540     0.2775   467.4168 O.3      152 DA      0.0000
   1602 C2'       -6.3253    -1.4066   468.0184 C.3      152 DA      0.0000
   1603 C1'       -5.6674    -0.2191   468.7731 C.3      152 DA      0.0000
   1604 N9        -4.2686    -0.6090   468.9185 N.ar     152 DA      0.0000
   1605 C8        -3.7805    -1.8945   468.9913 C.ar     152 DA      0.0000
   1606 N7        -2.4772    -1.9496   469.1060 N.ar     152 DA      0.0000
   1607 C5        -2.0884    -0.5981   469.0996 C.ar     152 DA      0.0000
   1608 C6        -0.8033     0.0024   469.1995 C.ar     152 DA      0.0000
   1609 N6         0.3329    -0.6898   469.3224 N.pl3    152 DA      0.0000
   1610 N1        -0.8141     1.3643   469.1644 N.ar     152 DA      0.0000
   1611 C2        -1.9671     2.0673   469.0455 C.ar     152 DA      0.0000
   1612 N3        -3.2038     1.5697   468.9540 N.ar     152 DA      0.0000
   1613 C4        -3.1805     0.2257   468.9816 C.ar     152 DA      0.0000
   1614 H5'       -9.0860    -2.1394   470.4208 H        152 DA      0.0000
   1615 H5''      -7.9179    -1.5337   471.6392 H        152 DA      0.0000
   1616 H4'       -8.4820     0.2221   469.9142 H        152 DA      0.0000
   1617 H3'       -8.5149    -1.6435   467.9362 H        152 DA      0.0000
   1618 H2'       -6.1471    -2.3680   468.5000 H        152 DA      0.0000
   1619 H2''      -6.0382    -1.4239   466.9670 H        152 DA      0.0000
   1620 H1'       -5.7470     0.6949   468.1846 H        152 DA      0.0000
   1621 H8        -4.4106    -2.7710   468.9573 H        152 DA      0.0000
   1622 H2        -1.8765     3.1431   469.0223 H        152 DA      0.0000
   1623 H61        0.3092    -1.6991   469.3471 H        152 DA      0.0000
   1624 H62        1.2156    -0.2036   469.3905 H        152 DA      0.0000
   1625 P         -8.9505     0.4099   466.2759 P.3      151 DC      0.0000
   1626 OP1      -10.1723     0.8660   467.0562 O.co2    151 DC      0.0000
   1627 OP2       -9.1670    -0.8468   465.5503 O.co2    151 DC      0.0000
   1628 O5'       -8.2388     1.5260   465.3000 O.3      151 DC      0.0000
   1629 C5'       -7.7904     2.7662   465.9691 C.3      151 DC      0.0000
   1630 C4'       -6.5068     3.2194   465.3250 C.3      151 DC      0.0000
   1631 O4'       -5.3377     2.7190   465.9622 O.3      151 DC      0.0000
   1632 C3'       -6.4001     2.8059   463.8472 C.3      151 DC      0.0000
   1633 O3'       -5.6974     3.7389   463.0359 O.3      151 DC      0.0000
   1634 C2'       -5.5308     1.5166   464.0129 C.3      151 DC      0.0000
   1635 C1'       -4.4684     2.2541   464.9084 C.3      151 DC      0.0000
   1636 N1        -3.3983     1.3210   465.1463 N.am     151 DC      0.0000
   1637 C2        -2.1453     1.8199   465.4635 C.2      151 DC      0.0000
   1638 O2        -1.7737     2.9904   465.6039 O.2      151 DC      0.0000
   1639 N3        -1.1301     0.9256   465.6617 N.2      151 DC      0.0000
   1640 C4        -1.3204    -0.4239   465.5457 C.2      151 DC      0.0000
   1641 N4        -0.2962    -1.2640   465.7618 N.pl3    151 DC      0.0000
   1642 C5        -2.6117    -0.9208   465.2161 C.2      151 DC      0.0000
   1643 C6        -3.5883    -0.0264   465.0244 C.2      151 DC      0.0000
   1644 H5'       -8.5506     3.5394   465.8576 H        151 DC      0.0000
   1645 H5''      -7.6198     2.5702   467.0277 H        151 DC      0.0000
   1646 H4'       -6.4743     4.3079   465.3718 H        151 DC      0.0000
   1647 H3'       -7.3792     2.5737   463.4282 H        151 DC      0.0000
   1648 H2'       -6.0478     0.7083   464.5300 H        151 DC      0.0000
   1649 H2''      -5.1058     1.1873   463.0646 H        151 DC      0.0000
   1650 H1'       -4.0775     3.1135   464.3635 H        151 DC      0.0000
   1651 H5        -2.7970    -1.9808   465.1239 H        151 DC      0.0000
   1652 H6        -4.5720    -0.3863   464.7611 H        151 DC      0.0000
   1653 H41        0.6143    -0.8990   466.0023 H        151 DC      0.0000
   1654 H42       -0.4360    -2.2613   465.6839 H        151 DC      0.0000
   1655 P         10.0191     0.0086   499.6351 P.3      161 DG      0.0000
   1656 OP1       11.3250    -0.6958   499.6335 O.co2    161 DG      0.0000
   1657 OP2        9.1439    -0.6827   500.6908 O.co2    161 DG      0.0000
   1658 O5'       10.0553     1.5893   499.8135 O.3      161 DG      0.0000
   1659 C5'        9.9094     2.6199   498.8135 C.3      161 DG      0.0000
   1660 C4'        8.8865     3.6192   499.3123 C.3      161 DG      0.0000
   1661 O4'        7.5788     3.2943   498.8931 O.3      161 DG      0.0000
   1662 C3'        8.8122     3.8723   500.8045 C.3      161 DG      0.0000
   1663 O3'        8.9434     5.2855   501.1165 O.3      161 DG      0.0000
   1664 C2'        7.4784     3.2858   501.2264 C.3      161 DG      0.0000
   1665 C1'        6.6442     3.3638   499.9707 C.3      161 DG      0.0000
   1666 N9         5.6701     2.2576   499.9417 N.ar     161 DG      0.0000
   1667 C8         5.8668     0.9163   500.1705 C.ar     161 DG      0.0000
   1668 N7         4.7749     0.1909   500.0808 N.ar     161 DG      0.0000
   1669 C5         3.7861     1.1186   499.7638 C.ar     161 DG      0.0000
   1670 C6         2.3949     0.9752   499.5379 C.2      161 DG      0.0000
   1671 O6         1.7214    -0.0554   499.5592 O.2      161 DG      0.0000
   1672 N1         1.7279     2.1360   499.2564 N.am     161 DG      0.0000
   1673 C2         2.3127     3.2895   499.1957 C.2      161 DG      0.0000
   1674 N2         1.4704     4.2015   498.8990 N.pl3    161 DG      0.0000
   1675 N3         3.6740     3.5325   499.4045 N.2      161 DG      0.0000
   1676 C4         4.3210     2.3903   499.6770 C.ar     161 DG      0.0000
   1677 H5'       10.8656     3.1184   498.6548 H        161 DG      0.0000
   1678 H5''       9.5657     2.1782   497.8781 H        161 DG      0.0000
   1679 H4'        9.1332     4.5738   498.8476 H        161 DG      0.0000
   1680 H3'        9.6140     3.3235   501.2984 H        161 DG      0.0000
   1681 H2'        7.5938     2.2524   501.5533 H        161 DG      0.0000
   1682 H2''       7.0316     3.8875   502.0179 H        161 DG      0.0000
   1683 H1'        6.1174     4.3176   499.9388 H        161 DG      0.0000
   1684 H8         6.8339     0.4957   500.4036 H        161 DG      0.0000
   1685 H1         0.7331     2.0910   499.0880 H        161 DG      0.0000
   1686 H21        0.4993     3.9644   498.7546 H        161 DG      0.0000
   1687 H22        1.7751     5.1601   498.8085 H        161 DG      0.0000
   1688 P          8.6235     5.8766   502.5450 P.3      162 DT      0.0000
   1689 OP1        9.5666     6.9345   503.0567 O.co2    162 DT      0.0000
   1690 OP2        8.8602     4.6641   503.4637 O.co2    162 DT      0.0000
   1691 O5'        7.1193     6.2501   502.5736 O.3      162 DT      0.0000
   1692 C5'        6.6365     7.6141   502.4296 C.3      162 DT      0.0000
   1693 C4'        5.1281     7.4932   502.4871 C.3      162 DT      0.0000
   1694 O4'        4.6876     6.1815   502.2120 O.3      162 DT      0.0000
   1695 C3'        4.4765     7.8476   503.7998 C.3      162 DT      0.0000
   1696 O3'        3.6601     9.0129   503.6116 O.3      162 DT      0.0000
   1697 C2'        3.6378     6.6314   504.1921 C.3      162 DT      0.0000
   1698 C1'        3.3822     6.0194   502.8393 C.3      162 DT      0.0000
   1699 N1         3.1194     4.5834   502.9360 N.am     162 DT      0.0000
   1700 C2         1.8320     4.1635   502.7380 C.2      162 DT      0.0000
   1701 O2         0.9127     4.9435   502.4998 O.2      162 DT      0.0000
   1702 N3         1.5958     2.8175   502.8191 N.am     162 DT      0.0000
   1703 C4         2.5693     1.9145   503.0750 C.2      162 DT      0.0000
   1704 O4         2.1999     0.7120   503.1203 O.2      162 DT      0.0000
   1705 C5         3.9113     2.3724   503.2747 C.2      162 DT      0.0000
   1706 C7         5.0168     1.4069   503.5546 C.3      162 DT      0.0000
   1707 C6         4.1331     3.6906   503.1932 C.2      162 DT      0.0000
   1708 H5'        7.0036     8.2400   503.2430 H        162 DT      0.0000
   1709 H5''       6.9459     8.0246   501.4684 H        162 DT      0.0000
   1710 H4'        4.7130     8.1499   501.7226 H        162 DT      0.0000
   1711 H3'        5.2367     8.0397   504.5569 H        162 DT      0.0000
   1712 H2'        4.1927     5.9536   504.8409 H        162 DT      0.0000
   1713 H2''       2.7035     6.9395   504.6613 H        162 DT      0.0000
   1714 H1'        2.5975     6.5438   502.2940 H        162 DT      0.0000
   1715 H3         0.6524     2.4841   502.6816 H        162 DT      0.0000
   1716 H6         5.1371     4.0631   503.3336 H        162 DT      0.0000
   1717 H71        5.6037     1.2534   502.6490 H        162 DT      0.0000
   1718 H72        4.5946     0.4560   503.8793 H        162 DT      0.0000
   1719 H73        5.6583     1.8069   504.3399 H        162 DT      0.0000
   1720 P          3.6787    10.0166   504.8916 P.3      163 DG      0.0000
   1721 OP1        3.6255    11.3607   504.1765 O.co2    163 DG      0.0000
   1722 OP2        4.9000     9.7957   505.6451 O.co2    163 DG      0.0000
   1723 O5'        2.2447     9.5302   505.5011 O.3      163 DG      0.0000
   1724 C5'        1.2508     9.4523   504.4105 C.3      163 DG      0.0000
   1725 C4'        0.0635     8.6966   504.9305 C.3      163 DG      0.0000
   1726 O4'        0.0779     7.3058   504.7500 O.3      163 DG      0.0000
   1727 C3'       -0.1831     8.9466   506.4386 C.3      163 DG      0.0000
   1728 O3'       -1.5511     9.3942   506.5974 O.3      163 DG      0.0000
   1729 C2'        0.1739     7.6281   507.0912 C.3      163 DG      0.0000
   1730 C1'       -0.2211     6.6293   506.0096 C.3      163 DG      0.0000
   1731 N9         0.4817     5.3527   506.1791 N.ar     163 DG      0.0000
   1732 C8         1.7892     5.1339   506.5153 C.ar     163 DG      0.0000
   1733 N7         2.1284     3.8664   506.6011 N.ar     163 DG      0.0000
   1734 C5         0.9479     3.2047   506.2711 C.ar     163 DG      0.0000
   1735 C6         0.6546     1.8141   506.1767 C.2      163 DG      0.0000
   1736 O6         1.4174     0.8556   506.3690 O.2      163 DG      0.0000
   1737 N1        -0.6494     1.5294   505.8417 N.am     163 DG      0.0000
   1738 C2        -1.5665     2.5106   505.6179 C.2      163 DG      0.0000
   1739 N2        -2.7854     2.0489   505.3091 N.pl3    163 DG      0.0000
   1740 N3        -1.3411     3.8205   505.6889 N.2      163 DG      0.0000
   1741 C4        -0.0678     4.1009   506.0155 C.ar     163 DG      0.0000
   1742 H5'        0.9498    10.4558   504.1100 H        163 DG      0.0000
   1743 H5''       1.6791     8.9249   503.5581 H        163 DG      0.0000
   1744 H4'       -0.8100     9.0756   504.4000 H        163 DG      0.0000
   1745 H3'        0.4957     9.7222   506.7933 H        163 DG      0.0000
   1746 H2'        1.2393     7.5711   507.3141 H        163 DG      0.0000
   1747 H2''      -0.4174     7.4724   507.9936 H        163 DG      0.0000
   1748 H1'       -1.2949     6.4516   506.0685 H        163 DG      0.0000
   1749 H8         2.4874     5.9379   506.6960 H        163 DG      0.0000
   1750 H1        -0.9346     0.5640   505.7593 H        163 DG      0.0000
   1751 H21       -2.9507     1.0538   505.2589 H        163 DG      0.0000
   1752 H22       -3.5392     2.6959   505.1264 H        163 DG      0.0000
   1753 P         -2.1073     9.8489   507.9859 P.3      164 DA      0.0000
   1754 OP1       -1.9380    11.2905   508.3412 O.co2    164 DA      0.0000
   1755 OP2       -1.1149     9.0202   508.8816 O.co2    164 DA      0.0000
   1756 O5'       -3.5133     9.1590   508.2350 O.3      164 DA      0.0000
   1757 C5'       -4.3817     8.6625   507.2059 C.3      164 DA      0.0000
   1758 C4'       -4.8193     7.2862   507.6803 C.3      164 DA      0.0000
   1759 O4'       -3.7480     6.3715   507.5899 O.3      164 DA      0.0000
   1760 C3'       -5.3558     7.2020   509.1093 C.3      164 DA      0.0000
   1761 O3'       -6.5852     6.4491   509.1616 O.3      164 DA      0.0000
   1762 C2'       -4.1997     6.5132   509.8447 C.3      164 DA      0.0000
   1763 C1'       -3.7823     5.5240   508.7671 C.3      164 DA      0.0000
   1764 N9        -2.4649     4.9220   508.9956 N.ar     164 DA      0.0000
   1765 C8        -1.2536     5.5157   509.2113 C.ar     164 DA      0.0000
   1766 N7        -0.2652     4.6651   509.3763 N.ar     164 DA      0.0000
   1767 C5        -0.8677     3.4239   509.2361 C.ar     164 DA      0.0000
   1768 C6        -0.3380     2.1159   509.2841 C.ar     164 DA      0.0000
   1769 N6         0.9474     1.8295   509.5038 N.pl3    164 DA      0.0000
   1770 N1        -1.2457     1.1125   509.0942 N.ar     164 DA      0.0000
   1771 C2        -2.5539     1.3807   508.8765 C.ar     164 DA      0.0000
   1772 N3        -3.1228     2.5842   508.8182 N.ar     164 DA      0.0000
   1773 C4        -2.2149     3.5594   509.0051 C.ar     164 DA      0.0000
   1774 H5'       -3.8475     8.5878   506.2587 H        164 DA      0.0000
   1775 H5''      -5.2479     9.3155   507.0981 H        164 DA      0.0000
   1776 H4'       -5.6067     6.9404   507.0105 H        164 DA      0.0000
   1777 H3'       -5.5120     8.2033   509.5107 H        164 DA      0.0000
   1778 H2'       -3.3991     7.2109   510.0902 H        164 DA      0.0000
   1779 H2''      -4.5552     5.9954   510.7356 H        164 DA      0.0000
   1780 H1'       -4.5386     4.7474   508.6526 H        164 DA      0.0000
   1781 H8        -1.1203     6.5870   509.2434 H        164 DA      0.0000
   1782 H2        -3.2050     0.5306   508.7351 H        164 DA      0.0000
   1783 H61        1.7110     2.4835   509.4064 H        164 DA      0.0000
   1784 H62        1.2642     0.8860   509.3323 H        164 DA      0.0000
   1785 P         -7.7347     6.7212   510.3030 P.3      165 DA      0.0000
   1786 OP1       -9.0160     7.1557   509.6360 O.co2    165 DA      0.0000
   1787 OP2       -7.0735     7.7480   511.1339 O.co2    165 DA      0.0000
   1788 O5'       -8.0476     5.2497   510.8339 O.3      165 DA      0.0000
   1789 C5'       -8.5660     4.2071   510.0095 C.3      165 DA      0.0000
   1790 C4'       -8.0343     2.8840   510.5318 C.3      165 DA      0.0000
   1791 O4'       -6.6349     2.8748   510.5600 O.3      165 DA      0.0000
   1792 C3'       -8.5132     2.4278   511.8991 C.3      165 DA      0.0000
   1793 O3'       -9.2653     1.2171   511.8213 O.3      165 DA      0.0000
   1794 C2'       -7.2255     2.3432   512.7279 C.3      165 DA      0.0000
   1795 C1'       -6.1472     2.1481   511.7341 C.3      165 DA      0.0000
   1796 N9        -4.7863     2.6473   512.0021 N.ar     165 DA      0.0000
   1797 C8        -4.3248     3.9362   512.1173 C.ar     165 DA      0.0000
   1798 N7        -3.0270     4.0285   512.2866 N.ar     165 DA      0.0000
   1799 C5        -2.5930     2.7073   512.2496 C.ar     165 DA      0.0000
   1800 C6        -1.2959     2.1321   512.3701 C.ar     165 DA      0.0000
   1801 N6        -0.1690     2.8066   512.5617 N.pl3    165 DA      0.0000
   1802 N1        -1.2424     0.7642   512.2719 N.ar     165 DA      0.0000
   1803 C2        -2.3810     0.0361   512.0828 C.ar     165 DA      0.0000
   1804 N3        -3.6181     0.5073   511.9750 N.ar     165 DA      0.0000
   1805 C4        -3.6548     1.8519   512.0668 C.ar     165 DA      0.0000
   1806 H5'       -8.2413     4.3547   508.9795 H        165 DA      0.0000
   1807 H5''      -9.6550     4.2093   510.0555 H        165 DA      0.0000
   1808 H4'       -8.3401     2.1180   509.8191 H        165 DA      0.0000
   1809 H3'       -9.1488     3.2056   512.3224 H        165 DA      0.0000
   1810 H2'       -7.0686     3.2650   513.2882 H        165 DA      0.0000
   1811 H2''      -7.2700     1.4922   513.4075 H        165 DA      0.0000
   1812 H1'       -6.0875     1.0879   511.4880 H        165 DA      0.0000
   1813 H8        -4.9737     4.7983   512.0725 H        165 DA      0.0000
   1814 H2        -2.2640    -1.0353   512.0136 H        165 DA      0.0000
   1815 H61       -0.1619     3.7625   512.8879 H        165 DA      0.0000
   1816 H62        0.7115     2.3483   512.3749 H        165 DA      0.0000
   1817 P        -10.5193     0.8202   512.7775 P.3      166 DT      0.0000
   1818 OP1      -11.6499     0.1797   511.9802 O.co2    166 DT      0.0000
   1819 OP2      -10.9133     1.9462   513.5981 O.co2    166 DT      0.0000
   1820 O5'       -9.9157    -0.4754   513.5912 O.3      166 DT      0.0000
   1821 C5'       -9.1291    -1.3196   512.6461 C.3      166 DT      0.0000
   1822 C4'       -7.9087    -1.7233   513.4339 C.3      166 DT      0.0000
   1823 O4'       -6.9860    -0.6745   513.6258 O.3      166 DT      0.0000
   1824 C3'       -8.2652    -2.2105   514.8505 C.3      166 DT      0.0000
   1825 O3'       -8.3113    -3.6254   514.8521 O.3      166 DT      0.0000
   1826 C2'       -7.1901    -1.6024   515.7477 C.3      166 DT      0.0000
   1827 C1'       -6.1686    -1.1484   514.7831 C.3      166 DT      0.0000
   1828 N1        -5.2601    -0.0648   515.1228 N.am     166 DT      0.0000
   1829 C2        -3.9149    -0.3925   515.2608 C.2      166 DT      0.0000
   1830 O2        -3.5609    -1.5612   515.1728 O.2      166 DT      0.0000
   1831 N3        -3.0301     0.6117   515.5148 N.am     166 DT      0.0000
   1832 C4        -3.4111     1.9175   515.6349 C.2      166 DT      0.0000
   1833 O4        -2.5264     2.7957   515.8901 O.2      166 DT      0.0000
   1834 C5        -4.7989     2.2342   515.4633 C.2      166 DT      0.0000
   1835 C7        -5.2681     3.6600   515.5509 C.3      166 DT      0.0000
   1836 C6        -5.6670     1.2403   515.2076 C.2      166 DT      0.0000
   1837 H5'       -9.7013    -2.1969   512.3445 H        166 DT      0.0000
   1838 H5''      -8.8391    -0.7380   511.7711 H        166 DT      0.0000
   1839 H4'       -7.4071    -2.5336   512.9047 H        166 DT      0.0000
   1840 H3'       -9.2405    -1.8157   515.1348 H        166 DT      0.0000
   1841 H2'       -7.5868    -0.7646   516.3211 H        166 DT      0.0000
   1842 H2''      -6.7762    -2.3591   516.4141 H        166 DT      0.0000
   1843 H1'       -5.5810    -2.0098   514.4658 H        166 DT      0.0000
   1844 H3        -2.0523     0.3809   515.6185 H        166 DT      0.0000
   1845 H6        -6.7112     1.4766   515.0654 H        166 DT      0.0000
   1846 H71       -4.4194     4.3099   515.7639 H        166 DT      0.0000
   1847 H72       -5.7202     3.9522   514.6031 H        166 DT      0.0000
   1848 H73       -6.0052     3.7516   516.3487 H        166 DT      0.0000
   1849 P         -8.8243    -4.5855   515.9588 P.3      167 DT      0.0000
   1850 OP1       -9.2144    -5.9558   515.3467 O.co2    167 DT      0.0000
   1851 OP2       -9.9887    -3.9112   516.5887 O.co2    167 DT      0.0000
   1852 O5'       -7.5255    -4.9117   516.8411 O.3      167 DT      0.0000
   1853 C5'       -6.5660    -5.7384   516.1293 C.3      167 DT      0.0000
   1854 C4'       -5.2439    -5.6253   516.8055 C.3      167 DT      0.0000
   1855 O4'       -4.6973    -4.3126   516.7821 O.3      167 DT      0.0000
   1856 C3'       -5.2407    -6.0799   518.2721 C.3      167 DT      0.0000
   1857 O3'       -4.0973    -6.8706   518.5361 O.3      167 DT      0.0000
   1858 C2'       -5.1212    -4.7244   519.0084 C.3      167 DT      0.0000
   1859 C1'       -4.0782    -4.0988   518.1049 C.3      167 DT      0.0000
   1860 N1        -3.9070    -2.6888   518.4026 N.am     167 DT      0.0000
   1861 C2        -2.6209    -2.1763   518.4574 C.2      167 DT      0.0000
   1862 O2        -1.6685    -2.9346   518.2689 O.2      167 DT      0.0000
   1863 N3        -2.4666    -0.8449   518.7233 N.am     167 DT      0.0000
   1864 C4        -3.5282    -0.0185   518.9303 C.2      167 DT      0.0000
   1865 O4        -3.3086     1.2064   519.1536 O.2      167 DT      0.0000
   1866 C5        -4.8468    -0.5558   518.8652 C.2      167 DT      0.0000
   1867 C7        -6.0677     0.2917   519.0752 C.3      167 DT      0.0000
   1868 C6        -4.9801    -1.8655   518.6041 C.2      167 DT      0.0000
   1869 H5'       -6.8965    -6.7771   516.1417 H        167 DT      0.0000
   1870 H5''      -6.4803    -5.3943   515.0986 H        167 DT      0.0000
   1871 H4'       -4.5509    -6.2718   516.2670 H        167 DT      0.0000
   1872 H3'       -6.1610    -6.6016   518.5345 H        167 DT      0.0000
   1873 H2'       -6.0583    -4.1678   519.0072 H        167 DT      0.0000
   1874 H2''      -4.7402    -4.8560   520.0211 H        167 DT      0.0000
   1875 H1'       -3.1294    -4.6300   518.1805 H        167 DT      0.0000
   1876 H3        -1.5334    -0.4611   518.7677 H        167 DT      0.0000
   1877 H6        -5.9736    -2.2856   518.5510 H        167 DT      0.0000
   1878 H71       -5.7668     1.3203   519.2741 H        167 DT      0.0000
   1879 H72       -6.6887     0.2618   518.1799 H        167 DT      0.0000
   1880 H73       -6.6345    -0.0916   519.9236 H        167 DT      0.0000
   1881 P          7.2984     4.5240   520.8199 P.3      167 DA      0.0000
   1882 OP1        8.4318     3.8472   521.6013 O.co2    167 DA      0.0000
   1883 OP2        7.8263     5.1904   519.6272 O.co2    167 DA      0.0000
   1884 O5'        6.1443     3.3875   520.6451 O.3      167 DA      0.0000
   1885 C5'        6.1055     2.4697   521.8016 C.3      167 DA      0.0000
   1886 C4'        6.4448     1.0976   521.2737 C.3      167 DA      0.0000
   1887 O4'        5.3029     0.3097   521.0515 O.3      167 DA      0.0000
   1888 C3'        7.1773     1.1394   519.9332 C.3      167 DA      0.0000
   1889 O3'        8.2211     0.1979   519.8581 O.3      167 DA      0.0000
   1890 C2'        6.0391     1.0125   518.9367 C.3      167 DA      0.0000
   1891 C1'        4.9137     0.3277   519.6605 C.3      167 DA      0.0000
   1892 N9         3.6276     1.0093   519.4350 N.ar     167 DA      0.0000
   1893 C8         3.3800     2.3521   519.2486 C.ar     167 DA      0.0000
   1894 N7         2.1155     2.6475   519.0528 N.ar     167 DA      0.0000
   1895 C5         1.4836     1.4134   519.1396 C.ar     167 DA      0.0000
   1896 C6         0.1205     1.0507   519.0340 C.ar     167 DA      0.0000
   1897 N6        -0.8562     1.9149   518.8215 N.pl3    167 DA      0.0000
   1898 N1        -0.1571    -0.2767   519.1577 N.ar     167 DA      0.0000
   1899 C2         0.8316    -1.1919   519.3822 C.ar     167 DA      0.0000
   1900 N3         2.1291    -0.9168   519.4981 N.ar     167 DA      0.0000
   1901 C4         2.3926     0.4053   519.3620 C.ar     167 DA      0.0000
   1902 H5'        6.8366     2.7762   522.5496 H        167 DA      0.0000
   1903 H5''       5.1068     2.4636   522.2382 H        167 DA      0.0000
   1904 H4'        7.0798     0.5923   522.0014 H        167 DA      0.0000
   1905 H3'        7.6127     2.1322   519.8201 H        167 DA      0.0000
   1906 H2'        6.3535     0.4168   518.0798 H        167 DA      0.0000
   1907 H2''       5.7219     2.0016   518.6061 H        167 DA      0.0000
   1908 H1'        4.8366    -0.6988   519.3023 H        167 DA      0.0000
   1909 H8         4.1602     3.0988   519.2625 H        167 DA      0.0000
   1910 H2         0.5357    -2.2265   519.4735 H        167 DA      0.0000
   1911 H61       -1.7973     1.7277   519.1369 H        167 DA      0.0000
   1912 H62       -0.6583     2.7777   518.3353 H        167 DA      0.0000
   1913 P          8.7148    -0.7239   518.6735 P.3      166 DA      0.0000
   1914 OP1        9.7332    -1.7801   519.1934 O.co2    166 DA      0.0000
   1915 OP2        9.4175     0.2105   517.7398 O.co2    166 DA      0.0000
   1916 O5'        7.4716    -1.5507   518.1708 O.3      166 DA      0.0000
   1917 C5'        7.2749    -2.9052   518.6266 C.3      166 DA      0.0000
   1918 C4'        6.0427    -3.4329   517.9247 C.3      166 DA      0.0000
   1919 O4'        5.0057    -2.5014   517.8039 O.3      166 DA      0.0000
   1920 C3'        6.3213    -3.9584   516.5172 C.3      166 DA      0.0000
   1921 O3'        6.1056    -5.3819   516.4857 O.3      166 DA      0.0000
   1922 C2'        5.4581    -3.0720   515.6176 C.3      166 DA      0.0000
   1923 C1'        4.3274    -2.6702   516.5154 C.3      166 DA      0.0000
   1924 N9         3.6788    -1.3979   516.2158 N.ar     166 DA      0.0000
   1925 C8         4.2436    -0.1544   516.0210 C.ar     166 DA      0.0000
   1926 N7         3.3647     0.8010   515.8156 N.ar     166 DA      0.0000
   1927 C5         2.1440     0.1589   515.8901 C.ar     166 DA      0.0000
   1928 C6         0.8194     0.6320   515.7566 C.ar     166 DA      0.0000
   1929 N6         0.5075     1.9014   515.5135 N.pl3    166 DA      0.0000
   1930 N1        -0.1583    -0.3187   515.9055 N.ar     166 DA      0.0000
   1931 C2         0.1271    -1.6106   516.1580 C.ar     166 DA      0.0000
   1932 N3         1.3513    -2.1286   516.2969 N.ar     166 DA      0.0000
   1933 C4         2.3123    -1.1896   516.1496 C.ar     166 DA      0.0000
   1934 H5'        8.1412    -3.5155   518.3715 H        166 DA      0.0000
   1935 H5''       7.1196    -2.9145   519.7054 H        166 DA      0.0000
   1936 H4'        5.6639    -4.2674   518.5148 H        166 DA      0.0000
   1937 H3'        7.3682    -3.7665   516.2821 H        166 DA      0.0000
   1938 H2'        6.0160    -2.1994   515.2777 H        166 DA      0.0000
   1939 H2''       5.0851    -3.6413   514.7663 H        166 DA      0.0000
   1940 H1'        3.5880    -3.4688   516.5765 H        166 DA      0.0000
   1941 H8         5.3097     0.0181   516.0360 H        166 DA      0.0000
   1942 H2        -0.7078    -2.2885   516.2571 H        166 DA      0.0000
   1943 H61       -0.4170     2.1826   515.8075 H        166 DA      0.0000
   1944 H62        1.1498     2.5397   515.0662 H        166 DA      0.0000
   1945 P          6.3234    -6.1734   515.1007 P.3      165 DT      0.0000
   1946 OP1        6.4057    -7.6677   515.1589 O.co2    165 DT      0.0000
   1947 OP2        7.5466    -5.4836   514.5881 O.co2    165 DT      0.0000
   1948 O5'        4.8558    -5.8135   514.3976 O.3      165 DT      0.0000
   1949 C5'        3.8094    -5.9180   515.4099 C.3      165 DT      0.0000
   1950 C4'        2.4975    -6.1384   514.7270 C.3      165 DT      0.0000
   1951 O4'        1.7584    -4.9676   514.5465 O.3      165 DT      0.0000
   1952 C3'        2.6092    -6.8074   513.3657 C.3      165 DT      0.0000
   1953 O3'        1.5399    -7.7230   513.0984 O.3      165 DT      0.0000
   1954 C2'        2.6390    -5.5604   512.4724 C.3      165 DT      0.0000
   1955 C1'        1.5712    -4.6994   513.1124 C.3      165 DT      0.0000
   1956 N1         1.8310    -3.2657   512.8824 N.am     165 DT      0.0000
   1957 C2         0.7354    -2.4291   512.7608 C.2      165 DT      0.0000
   1958 O2        -0.4129    -2.8740   512.7976 O.2      165 DT      0.0000
   1959 N3         0.9652    -1.0905   512.5934 N.am     165 DT      0.0000
   1960 C4         2.2238    -0.5773   512.5449 C.2      165 DT      0.0000
   1961 O4         2.3432     0.6706   512.3594 O.2      165 DT      0.0000
   1962 C5         3.3363    -1.4521   512.6933 C.2      165 DT      0.0000
   1963 C7         4.7480    -0.9180   512.6412 C.3      165 DT      0.0000
   1964 C6         3.0951    -2.7559   512.8663 C.2      165 DT      0.0000
   1965 H5'        4.0230    -6.7571   516.0720 H        165 DT      0.0000
   1966 H5''       3.7689    -4.9960   515.9899 H        165 DT      0.0000
   1967 H4'        1.9082    -6.7979   515.3640 H        165 DT      0.0000
   1968 H3'        3.5630    -7.3301   513.2937 H        165 DT      0.0000
   1969 H2'        3.6135    -5.0730   512.5030 H        165 DT      0.0000
   1970 H2''       2.3669    -5.8138   511.4478 H        165 DT      0.0000
   1971 H1'        0.5734    -4.9843   512.7784 H        165 DT      0.0000
   1972 H3         0.1771    -0.4653   512.5033 H        165 DT      0.0000
   1973 H6         3.9303    -3.4279   512.9976 H        165 DT      0.0000
   1974 H71        5.1491    -1.0475   511.6360 H        165 DT      0.0000
   1975 H72        5.3687    -1.4626   513.3527 H        165 DT      0.0000
   1976 H73        4.7453     0.1413   512.8977 H        165 DT      0.0000
   1977 P          1.5418    -8.3972   511.6085 P.3      164 DT      0.0000
   1978 OP1        1.7987    -9.8980   511.7565 O.co2    164 DT      0.0000
   1979 OP2        2.7181    -7.7467   510.9387 O.co2    164 DT      0.0000
   1980 O5'        0.1676    -8.0988   510.9565 O.3      164 DT      0.0000
   1981 C5'       -1.0358    -7.9396   511.7079 C.3      164 DT      0.0000
   1982 C4'       -1.9357    -7.0090   510.9599 C.3      164 DT      0.0000
   1983 O4'       -1.5939    -5.6505   510.9029 O.3      164 DT      0.0000
   1984 C3'       -2.2667    -7.3630   509.4938 C.3      164 DT      0.0000
   1985 O3'       -3.6169    -6.9010   509.3901 O.3      164 DT      0.0000
   1986 C2'       -1.2886    -6.4605   508.7301 C.3      164 DT      0.0000
   1987 C1'       -1.5641    -5.1887   509.5058 C.3      164 DT      0.0000
   1988 N1        -0.5446    -4.1411   509.3996 N.am     164 DT      0.0000
   1989 C2        -1.0313    -2.8271   509.3990 C.2      164 DT      0.0000
   1990 O2        -2.2417    -2.5969   509.4420 O.2      164 DT      0.0000
   1991 N3        -0.1079    -1.8228   509.3455 N.am     164 DT      0.0000
   1992 C4         1.2338    -2.0565   509.2858 C.2      164 DT      0.0000
   1993 O4         2.0102    -1.0562   509.2234 O.2      164 DT      0.0000
   1994 C5         1.7004    -3.3993   509.2940 C.2      164 DT      0.0000
   1995 C7         3.1886    -3.6734   509.2326 C.3      164 DT      0.0000
   1996 C6         0.7936    -4.3784   509.3605 C.2      164 DT      0.0000
   1997 H5'       -1.5246    -8.9062   511.8301 H        164 DT      0.0000
   1998 H5''      -0.8045    -7.5190   512.6864 H        164 DT      0.0000
   1999 H4'       -2.8890    -7.0444   511.4871 H        164 DT      0.0000
   2000 H3'       -2.1504    -8.4224   509.2651 H        164 DT      0.0000
   2001 H2'       -1.5443    -6.3683   507.6745 H        164 DT      0.0000
   2002 H2''      -0.2582    -6.7907   508.8617 H        164 DT      0.0000
   2003 H1'       -2.5385    -4.7877   509.2268 H        164 DT      0.0000
   2004 H3        -0.4326    -0.8665   509.3504 H        164 DT      0.0000
   2005 H6         1.1383    -5.4017   509.3842 H        164 DT      0.0000
   2006 H71        3.7308    -2.7291   509.1838 H        164 DT      0.0000
   2007 H72        3.4121    -4.2668   508.3460 H        164 DT      0.0000
   2008 H73        3.4940    -4.2221   510.1236 H        164 DT      0.0000
   2009 P         -4.6192    -7.2043   508.2438 P.3      163 DC      0.0000
   2010 OP1       -5.9473    -7.6577   508.8530 O.co2    163 DC      0.0000
   2011 OP2       -4.0151    -8.3283   507.4620 O.co2    163 DC      0.0000
   2012 O5'       -4.6987    -5.7548   507.5044 O.3      163 DC      0.0000
   2013 C5'       -5.4589    -4.7328   508.2289 C.3      163 DC      0.0000
   2014 C4'       -6.1215    -3.8799   507.1784 C.3      163 DC      0.0000
   2015 O4'       -5.4117    -2.6881   506.9331 O.3      163 DC      0.0000
   2016 C3'       -6.3009    -4.5476   505.8140 C.3      163 DC      0.0000
   2017 O3'       -7.4757    -4.1483   505.1047 O.3      163 DC      0.0000
   2018 C2'       -4.9864    -4.1509   505.1279 C.3      163 DC      0.0000
   2019 C1'       -4.7409    -2.7459   505.6744 C.3      163 DC      0.0000
   2020 N1        -3.2767    -2.5513   505.7922 N.am     163 DC      0.0000
   2021 C2        -2.8115    -1.2372   505.8095 C.2      163 DC      0.0000
   2022 O2        -3.5944    -0.2797   505.7408 O.2      163 DC      0.0000
   2023 N3        -1.4592    -1.0528   505.9127 N.2      163 DC      0.0000
   2024 C4        -0.5912    -2.0957   505.9835 C.2      163 DC      0.0000
   2025 N4         0.7195    -1.8646   506.0854 N.pl3    163 DC      0.0000
   2026 C5        -1.0924    -3.4271   505.9583 C.2      163 DC      0.0000
   2027 C6        -2.4210    -3.6074   505.8647 C.2      163 DC      0.0000
   2028 H5'       -6.2103    -5.2008   508.8649 H        163 DC      0.0000
   2029 H5''      -4.7853    -4.1248   508.8328 H        163 DC      0.0000
   2030 H4'       -7.1103    -3.6075   507.5472 H        163 DC      0.0000
   2031 H3'       -6.3183    -5.6291   505.9482 H        163 DC      0.0000
   2032 H2'       -5.0962    -4.1383   504.0435 H        163 DC      0.0000
   2033 H2''      -4.1813    -4.8235   505.4238 H        163 DC      0.0000
   2034 H1'       -5.1610    -2.0042   504.9951 H        163 DC      0.0000
   2035 H5        -0.4218    -4.2720   506.0131 H        163 DC      0.0000
   2036 H6        -2.8181    -4.6116   505.8466 H        163 DC      0.0000
   2037 H41        1.0649    -0.9157   506.1061 H        163 DC      0.0000
   2038 H42        1.3659    -2.6386   506.1418 H        163 DC      0.0000
   2039 P         -7.5968    -3.9482   503.4727 P.3      162 DA      0.0000
   2040 OP1       -9.0521    -4.0927   503.0832 O.co2    162 DA      0.0000
   2041 OP2       -6.6919    -4.9831   502.9026 O.co2    162 DA      0.0000
   2042 O5'       -7.1876    -2.4141   503.3072 O.3      162 DA      0.0000
   2043 C5'       -8.1479    -1.3879   503.7726 C.3      162 DA      0.0000
   2044 C4'       -7.7837    -0.2022   502.8953 C.3      162 DA      0.0000
   2045 O4'       -6.4347     0.2016   503.1627 O.3      162 DA      0.0000
   2046 C3'       -7.8007    -0.5267   501.3909 C.3      162 DA      0.0000
   2047 O3'       -7.8318     0.6519   500.6019 O.3      162 DA      0.0000
   2048 C2'       -6.3852    -1.1032   501.2034 C.3      162 DA      0.0000
   2049 C1'       -5.6714     0.0515   501.9581 C.3      162 DA      0.0000
   2050 N9        -4.2928    -0.4046   502.1035 N.ar     162 DA      0.0000
   2051 C8        -3.8665    -1.7119   502.1764 C.ar     162 DA      0.0000
   2052 N7        -2.5674    -1.8292   502.2910 N.ar     162 DA      0.0000
   2053 C5        -2.1146    -0.4978   502.2846 C.ar     162 DA      0.0000
   2054 C6        -0.8023     0.0408   502.3846 C.ar     162 DA      0.0000
   2055 N6         0.2997    -0.7049   502.5074 N.pl3    162 DA      0.0000
   2056 N1        -0.7481     1.4016   502.3494 N.ar     162 DA      0.0000
   2057 C2        -1.8662     2.1588   502.2305 C.ar     162 DA      0.0000
   2058 N3        -3.1252     1.7208   502.1391 N.ar     162 DA      0.0000
   2059 C4        -3.1661     0.3772   502.1666 C.ar     162 DA      0.0000
   2060 H5'       -9.1777    -1.7035   503.6059 H        162 DA      0.0000
   2061 H5''      -7.9821    -1.1542   504.8242 H        162 DA      0.0000
   2062 H4'       -8.4618     0.6265   503.0993 H        162 DA      0.0000
   2063 H3'       -8.5837    -1.2354   501.1213 H        162 DA      0.0000
   2064 H2'       -6.2531    -2.0720   501.6851 H        162 DA      0.0000
   2065 H2''      -6.0993    -1.1342   500.1521 H        162 DA      0.0000
   2066 H1'       -5.7073     0.9683   501.3697 H        162 DA      0.0000
   2067 H8        -4.5377    -2.5574   502.1424 H        162 DA      0.0000
   2068 H2        -1.7244     3.2291   502.2073 H        162 DA      0.0000
   2069 H61        0.2278    -1.7120   502.5322 H        162 DA      0.0000
   2070 H62        1.2045    -0.2613   502.5755 H        162 DA      0.0000
   2071 P         -8.9208     0.8365   499.4609 P.3      161 DC      0.0000
   2072 OP1      -10.1194     1.3503   500.2412 O.co2    161 DC      0.0000
   2073 OP2       -9.1970    -0.4085   498.7353 O.co2    161 DC      0.0000
   2074 O5'       -8.1566     1.9173   498.4851 O.3      161 DC      0.0000
   2075 C5'       -7.6496     3.1347   499.1541 C.3      161 DC      0.0000
   2076 C4'       -6.3458     3.5262   498.5101 C.3      161 DC      0.0000
   2077 O4'       -5.2019     2.9706   499.1472 O.3      161 DC      0.0000
   2078 C3'       -6.2590     3.1081   497.0323 C.3      161 DC      0.0000
   2079 O3'       -5.5125     4.0064   496.2209 O.3      161 DC      0.0000
   2080 C2'       -5.4521     1.7787   497.1979 C.3      161 DC      0.0000
   2081 C1'       -4.3557     2.4647   498.0935 C.3      161 DC      0.0000
   2082 N1        -3.3314     1.4816   498.3314 N.am     161 DC      0.0000
   2083 C2        -2.0560     1.9202   498.6485 C.2      161 DC      0.0000
   2084 O2        -1.6290     3.0717   498.7890 O.2      161 DC      0.0000
   2085 N3        -1.0847     0.9784   498.8467 N.2      161 DC      0.0000
   2086 C4        -1.3392    -0.3604   498.7308 C.2      161 DC      0.0000
   2087 N4        -0.3562    -1.2484   498.9468 N.pl3    161 DC      0.0000
   2088 C5        -2.6526    -0.7951   498.4011 C.2      161 DC      0.0000
   2089 C6        -3.5855     0.1448   498.2094 C.2      161 DC      0.0000
   2090 H5'       -8.3720     3.9433   499.0426 H        161 DC      0.0000
   2091 H5''      -7.4885     2.9308   500.2127 H        161 DC      0.0000
   2092 H4'       -6.2614     4.6119   498.5568 H        161 DC      0.0000
   2093 H3'       -7.2480     2.9228   496.6132 H        161 DC      0.0000
   2094 H2'       -6.0072     0.9960   497.7150 H        161 DC      0.0000
   2095 H2''      -5.0434     1.4296   496.2497 H        161 DC      0.0000
   2096 H1'       -3.9244     3.3045   497.5486 H        161 DC      0.0000
   2097 H5        -2.8883    -1.8451   498.3090 H        161 DC      0.0000
   2098 H6        -4.5852    -0.1677   497.9462 H        161 DC      0.0000
   2099 H41        0.5707    -0.9273   499.1873 H        161 DC      0.0000
   2100 H42       -0.5434    -2.2379   498.8689 H        161 DC      0.0000
@<TRIPOS>BOND
     1      9     33 1
     2     41     65 1
     3     73     97 1
     4    105    127 1
     5    135    159 1
     6    197    222 1
     7    230    254 1
     8    262    287 1
     9    295    319 1
    10    327    351 1
    11      1      2 1
    12      1      3 1
    13      1      4 1
    14      4      5 1
    15      5      6 1
    16      6      7 1
    17      6      8 1
    18      7     11 1
    19      8      9 1
    20      8     10 1
    21     10     11 1
    22     11     12 1
    23     12     13 ar
    24     12     21 ar
    25     13     14 ar
    26     14     15 ar
    27     15     16 ar
    28     15     21 ar
    29     16     17 1
    30     16     18 ar
    31     18     19 ar
    32     19     20 ar
    33     20     21 ar
    34     33     34 1
    35     33     35 1
    36     33     36 1
    37     36     37 1
    38     37     38 1
    39     38     39 1
    40     38     40 1
    41     39     43 1
    42     40     41 1
    43     40     42 1
    44     42     43 1
    45     43     44 1
    46     44     45 am
    47     44     52 1
    48     45     46 2
    49     45     47 am
    50     47     48 am
    51     48     49 2
    52     48     50 1
    53     50     51 1
    54     50     52 2
    55     65     66 1
    56     65     67 1
    57     65     68 1
    58     68     69 1
    59     69     70 1
    60     70     71 1
    61     70     72 1
    62     71     75 1
    63     72     73 1
    64     72     74 1
    65     74     75 1
    66     75     76 1
    67     76     77 am
    68     76     84 1
    69     77     78 2
    70     77     79 am
    71     79     80 am
    72     80     81 2
    73     80     82 1
    74     82     83 1
    75     82     84 2
    76     97     98 1
    77     97     99 1
    78     97    100 1
    79    100    101 1
    80    101    102 1
    81    102    103 1
    82    102    104 1
    83    103    107 1
    84    104    105 1
    85    104    106 1
    86    106    107 1
    87    107    108 1
    88    108    109 am
    89    108    115 1
    90    109    110 2
    91    109    111 1
    92    111    112 2
    93    112    113 2
    94    112    114 2
    95    114    115 2
    96    127    128 1
    97    127    129 1
    98    127    130 1
    99    130    131 1
   100    131    132 1
   101    132    133 1
   102    132    134 1
   103    133    137 1
   104    134    135 1
   105    134    136 1
   106    136    137 1
   107    137    138 1
   108    138    139 ar
   109    138    147 ar
   110    139    140 ar
   111    140    141 ar
   112    141    142 ar
   113    141    147 ar
   114    142    143 1
   115    142    144 ar
   116    144    145 ar
   117    145    146 ar
   118    146    147 ar
   119    159    160 1
   120    159    161 1
   121    159    162 1
   122    162    163 1
   123    163    164 1
   124    164    165 1
   125    164    166 1
   126    165    169 1
   127    166    167 1
   128    166    168 1
   129    168    169 1
   130    169    170 1
   131    170    171 am
   132    170    177 1
   133    171    172 2
   134    171    173 1
   135    173    174 2
   136    174    175 2
   137    174    176 2
   138    176    177 2
   139    189    190 1
   140    189    191 1
   141    189    192 1
   142    192    193 1
   143    193    194 1
   144    194    195 1
   145    194    196 1
   146    195    199 1
   147    196    197 1
   148    196    198 1
   149    198    199 1
   150    199    200 1
   151    200    201 ar
   152    200    210 ar
   153    201    202 ar
   154    202    203 ar
   155    203    204 1
   156    203    210 ar
   157    204    205 2
   158    204    206 am
   159    206    207 1
   160    207    208 2
   161    207    209 2
   162    209    210 1
   163    222    223 1
   164    222    224 1
   165    222    225 1
   166    225    226 1
   167    226    227 1
   168    227    228 1
   169    227    229 1
   170    228    232 1
   171    229    230 1
   172    229    231 1
   173    231    232 1
   174    232    233 1
   175    233    234 am
   176    233    241 1
   177    234    235 2
   178    234    236 am
   179    236    237 am
   180    237    238 2
   181    237    239 1
   182    239    240 1
   183    239    241 2
   184    254    255 1
   185    254    256 1
   186    254    257 1
   187    257    258 1
   188    258    259 1
   189    259    260 1
   190    259    261 1
   191    260    264 1
   192    261    262 1
   193    261    263 1
   194    263    264 1
   195    264    265 1
   196    265    266 ar
   197    265    275 ar
   198    266    267 ar
   199    267    268 ar
   200    268    269 1
   201    268    275 ar
   202    269    270 2
   203    269    271 am
   204    271    272 1
   205    272    273 2
   206    272    274 2
   207    274    275 1
   208    287    288 1
   209    287    289 1
   210    287    290 1
   211    290    291 1
   212    291    292 1
   213    292    293 1
   214    292    294 1
   215    293    297 1
   216    294    295 1
   217    294    296 1
   218    296    297 1
   219    297    298 1
   220    298    299 ar
   221    298    307 ar
   222    299    300 ar
   223    300    301 ar
   224    301    302 ar
   225    301    307 ar
   226    302    303 1
   227    302    304 ar
   228    304    305 ar
   229    305    306 ar
   230    306    307 ar
   231    319    320 1
   232    319    321 1
   233    319    322 1
   234    322    323 1
   235    323    324 1
   236    324    325 1
   237    324    326 1
   238    325    329 1
   239    326    327 1
   240    326    328 1
   241    328    329 1
   242    329    330 1
   243    330    331 ar
   244    330    339 ar
   245    331    332 ar
   246    332    333 ar
   247    333    334 ar
   248    333    339 ar
   249    334    335 1
   250    334    336 ar
   251    336    337 ar
   252    337    338 ar
   253    338    339 ar
   254    351    352 1
   255    351    353 1
   256    351    354 1
   257    354    355 1
   258    355    356 1
   259    356    357 1
   260    356    358 1
   261    357    361 1
   262    358    359 1
   263    358    360 1
   264    360    361 1
   265    361    362 1
   266    362    363 am
   267    362    370 1
   268    363    364 2
   269    363    365 am
   270    365    366 am
   271    366    367 2
   272    366    368 1
   273    368    369 1
   274    368    370 2
   275     22      5 1
   276     23      5 1
   277     24      6 1
   278     25      8 1
   279     26     10 1
   280     27     10 1
   281     28     11 1
   282     29     13 1
   283     30     19 1
   284     53     37 1
   285     54     37 1
   286     55     38 1
   287     56     40 1
   288     57     42 1
   289     58     42 1
   290     59     43 1
   291     60     47 1
   292     61     52 1
   293     85     69 1
   294     86     69 1
   295     87     70 1
   296     88     72 1
   297     89     74 1
   298     90     74 1
   299     91     75 1
   300     92     79 1
   301     93     84 1
   302    116    101 1
   303    117    101 1
   304    118    102 1
   305    119    104 1
   306    120    106 1
   307    121    106 1
   308    122    107 1
   309    123    114 1
   310    124    115 1
   311    148    131 1
   312    149    131 1
   313    150    132 1
   314    151    134 1
   315    152    136 1
   316    153    136 1
   317    154    137 1
   318    155    139 1
   319    156    145 1
   320    178    163 1
   321    179    163 1
   322    180    164 1
   323    181    166 1
   324    182    168 1
   325    183    168 1
   326    184    169 1
   327    185    176 1
   328    186    177 1
   329    211    193 1
   330    212    193 1
   331    213    194 1
   332    214    196 1
   333    215    198 1
   334    216    198 1
   335    217    199 1
   336    218    201 1
   337    219    206 1
   338    242    226 1
   339    243    226 1
   340    244    227 1
   341    245    229 1
   342    246    231 1
   343    247    231 1
   344    248    232 1
   345    249    236 1
   346    250    241 1
   347    276    258 1
   348    277    258 1
   349    278    259 1
   350    279    261 1
   351    280    263 1
   352    281    263 1
   353    282    264 1
   354    283    266 1
   355    284    271 1
   356    308    291 1
   357    309    291 1
   358    310    292 1
   359    311    294 1
   360    312    296 1
   361    313    296 1
   362    314    297 1
   363    315    299 1
   364    316    305 1
   365    340    323 1
   366    341    323 1
   367    342    324 1
   368    343    326 1
   369    344    328 1
   370    345    328 1
   371    346    329 1
   372    347    331 1
   373    348    337 1
   374    371    355 1
   375    372    355 1
   376    373    356 1
   377    374    358 1
   378    375    360 1
   379    376    360 1
   380    377    361 1
   381    378    365 1
   382    379    370 1
   383    125    113 1
   384    126    113 1
   385    187    175 1
   386    188    175 1
   387    220    208 1
   388    221    208 1
   389    285    273 1
   390    286    273 1
   391     31     17 1
   392     32     17 1
   393    157    143 1
   394    158    143 1
   395    317    303 1
   396    318    303 1
   397    349    335 1
   398    350    335 1
   399     62     51 1
   400     63     51 1
   401     64     51 1
   402     94     83 1
   403     95     83 1
   404     96     83 1
   405    251    240 1
   406    252    240 1
   407    253    240 1
   408    380    369 1
   409    381    369 1
   410    382    369 1
   411    167    383 1
   412    189    997 1
   413    391    416 1
   414    424    448 1
   415    456    481 1
   416    489    513 1
   417    521    545 1
   418    553    577 1
   419    585    609 1
   420    617    639 1
   421    647    671 1
   422    709    734 1
   423    742    766 1
   424    774    799 1
   425    807    831 1
   426    839    863 1
   427    871    895 1
   428    903    927 1
   429    935    957 1
   430    965    989 1
   431    383    384 1
   432    383    385 1
   433    383    386 1
   434    386    387 1
   435    387    388 1
   436    388    389 1
   437    388    390 1
   438    389    393 1
   439    390    391 1
   440    390    392 1
   441    392    393 1
   442    393    394 1
   443    394    395 ar
   444    394    404 ar
   445    395    396 ar
   446    396    397 ar
   447    397    398 1
   448    397    404 ar
   449    398    399 2
   450    398    400 am
   451    400    401 1
   452    401    402 2
   453    401    403 2
   454    403    404 1
   455    416    417 1
   456    416    418 1
   457    416    419 1
   458    419    420 1
   459    420    421 1
   460    421    422 1
   461    421    423 1
   462    422    426 1
   463    423    424 1
   464    423    425 1
   465    425    426 1
   466    426    427 1
   467    427    428 am
   468    427    435 1
   469    428    429 2
   470    428    430 am
   471    430    431 am
   472    431    432 2
   473    431    433 1
   474    433    434 1
   475    433    435 2
   476    448    449 1
   477    448    450 1
   478    448    451 1
   479    451    452 1
   480    452    453 1
   481    453    454 1
   482    453    455 1
   483    454    458 1
   484    455    456 1
   485    455    457 1
   486    457    458 1
   487    458    459 1
   488    459    460 ar
   489    459    469 ar
   490    460    461 ar
   491    461    462 ar
   492    462    463 1
   493    462    469 ar
   494    463    464 2
   495    463    465 am
   496    465    466 1
   497    466    467 2
   498    466    468 2
   499    468    469 1
   500    481    482 1
   501    481    483 1
   502    481    484 1
   503    484    485 1
   504    485    486 1
   505    486    487 1
   506    486    488 1
   507    487    491 1
   508    488    489 1
   509    488    490 1
   510    490    491 1
   511    491    492 1
   512    492    493 ar
   513    492    501 ar
   514    493    494 ar
   515    494    495 ar
   516    495    496 ar
   517    495    501 ar
   518    496    497 1
   519    496    498 ar
   520    498    499 ar
   521    499    500 ar
   522    500    501 ar
   523    513    514 1
   524    513    515 1
   525    513    516 1
   526    516    517 1
   527    517    518 1
   528    518    519 1
   529    518    520 1
   530    519    523 1
   531    520    521 1
   532    520    522 1
   533    522    523 1
   534    523    524 1
   535    524    525 ar
   536    524    533 ar
   537    525    526 ar
   538    526    527 ar
   539    527    528 ar
   540    527    533 ar
   541    528    529 1
   542    528    530 ar
   543    530    531 ar
   544    531    532 ar
   545    532    533 ar
   546    545    546 1
   547    545    547 1
   548    545    548 1
   549    548    549 1
   550    549    550 1
   551    550    551 1
   552    550    552 1
   553    551    555 1
   554    552    553 1
   555    552    554 1
   556    554    555 1
   557    555    556 1
   558    556    557 am
   559    556    564 1
   560    557    558 2
   561    557    559 am
   562    559    560 am
   563    560    561 2
   564    560    562 1
   565    562    563 1
   566    562    564 2
   567    577    578 1
   568    577    579 1
   569    577    580 1
   570    580    581 1
   571    581    582 1
   572    582    583 1
   573    582    584 1
   574    583    587 1
   575    584    585 1
   576    584    586 1
   577    586    587 1
   578    587    588 1
   579    588    589 am
   580    588    596 1
   581    589    590 2
   582    589    591 am
   583    591    592 am
   584    592    593 2
   585    592    594 1
   586    594    595 1
   587    594    596 2
   588    609    610 1
   589    609    611 1
   590    609    612 1
   591    612    613 1
   592    613    614 1
   593    614    615 1
   594    614    616 1
   595    615    619 1
   596    616    617 1
   597    616    618 1
   598    618    619 1
   599    619    620 1
   600    620    621 am
   601    620    627 1
   602    621    622 2
   603    621    623 1
   604    623    624 2
   605    624    625 2
   606    624    626 2
   607    626    627 2
   608    639    640 1
   609    639    641 1
   610    639    642 1
   611    642    643 1
   612    643    644 1
   613    644    645 1
   614    644    646 1
   615    645    649 1
   616    646    647 1
   617    646    648 1
   618    648    649 1
   619    649    650 1
   620    650    651 ar
   621    650    659 ar
   622    651    652 ar
   623    652    653 ar
   624    653    654 ar
   625    653    659 ar
   626    654    655 1
   627    654    656 ar
   628    656    657 ar
   629    657    658 ar
   630    658    659 ar
   631    671    672 1
   632    671    673 1
   633    671    674 1
   634    674    675 1
   635    675    676 1
   636    676    677 1
   637    676    678 1
   638    677    681 1
   639    678    679 1
   640    678    680 1
   641    680    681 1
   642    681    682 1
   643    682    683 am
   644    682    689 1
   645    683    684 2
   646    683    685 1
   647    685    686 2
   648    686    687 2
   649    686    688 2
   650    688    689 2
   651    701    702 1
   652    701    703 1
   653    701    704 1
   654    704    705 1
   655    705    706 1
   656    706    707 1
   657    706    708 1
   658    707    711 1
   659    708    709 1
   660    708    710 1
   661    710    711 1
   662    711    712 1
   663    712    713 ar
   664    712    722 ar
   665    713    714 ar
   666    714    715 ar
   667    715    716 1
   668    715    722 ar
   669    716    717 2
   670    716    718 am
   671    718    719 1
   672    719    720 2
   673    719    721 2
   674    721    722 1
   675    734    735 1
   676    734    736 1
   677    734    737 1
   678    737    738 1
   679    738    739 1
   680    739    740 1
   681    739    741 1
   682    740    744 1
   683    741    742 1
   684    741    743 1
   685    743    744 1
   686    744    745 1
   687    745    746 am
   688    745    753 1
   689    746    747 2
   690    746    748 am
   691    748    749 am
   692    749    750 2
   693    749    751 1
   694    751    752 1
   695    751    753 2
   696    766    767 1
   697    766    768 1
   698    766    769 1
   699    769    770 1
   700    770    771 1
   701    771    772 1
   702    771    773 1
   703    772    776 1
   704    773    774 1
   705    773    775 1
   706    775    776 1
   707    776    777 1
   708    777    778 ar
   709    777    787 ar
   710    778    779 ar
   711    779    780 ar
   712    780    781 1
   713    780    787 ar
   714    781    782 2
   715    781    783 am
   716    783    784 1
   717    784    785 2
   718    784    786 2
   719    786    787 1
   720    799    800 1
   721    799    801 1
   722    799    802 1
   723    802    803 1
   724    803    804 1
   725    804    805 1
   726    804    806 1
   727    805    809 1
   728    806    807 1
   729    806    808 1
   730    808    809 1
   731    809    810 1
   732    810    811 ar
   733    810    819 ar
   734    811    812 ar
   735    812    813 ar
   736    813    814 ar
   737    813    819 ar
   738    814    815 1
   739    814    816 ar
   740    816    817 ar
   741    817    818 ar
   742    818    819 ar
   743    831    832 1
   744    831    833 1
   745    831    834 1
   746    834    835 1
   747    835    836 1
   748    836    837 1
   749    836    838 1
   750    837    841 1
   751    838    839 1
   752    838    840 1
   753    840    841 1
   754    841    842 1
   755    842    843 ar
   756    842    851 ar
   757    843    844 ar
   758    844    845 ar
   759    845    846 ar
   760    845    851 ar
   761    846    847 1
   762    846    848 ar
   763    848    849 ar
   764    849    850 ar
   765    850    851 ar
   766    863    864 1
   767    863    865 1
   768    863    866 1
   769    866    867 1
   770    867    868 1
   771    868    869 1
   772    868    870 1
   773    869    873 1
   774    870    871 1
   775    870    872 1
   776    872    873 1
   777    873    874 1
   778    874    875 am
   779    874    882 1
   780    875    876 2
   781    875    877 am
   782    877    878 am
   783    878    879 2
   784    878    880 1
   785    880    881 1
   786    880    882 2
   787    895    896 1
   788    895    897 1
   789    895    898 1
   790    898    899 1
   791    899    900 1
   792    900    901 1
   793    900    902 1
   794    901    905 1
   795    902    903 1
   796    902    904 1
   797    904    905 1
   798    905    906 1
   799    906    907 am
   800    906    914 1
   801    907    908 2
   802    907    909 am
   803    909    910 am
   804    910    911 2
   805    910    912 1
   806    912    913 1
   807    912    914 2
   808    927    928 1
   809    927    929 1
   810    927    930 1
   811    930    931 1
   812    931    932 1
   813    932    933 1
   814    932    934 1
   815    933    937 1
   816    934    935 1
   817    934    936 1
   818    936    937 1
   819    937    938 1
   820    938    939 am
   821    938    945 1
   822    939    940 2
   823    939    941 1
   824    941    942 2
   825    942    943 2
   826    942    944 2
   827    944    945 2
   828    957    958 1
   829    957    959 1
   830    957    960 1
   831    960    961 1
   832    961    962 1
   833    962    963 1
   834    962    964 1
   835    963    967 1
   836    964    965 1
   837    964    966 1
   838    966    967 1
   839    967    968 1
   840    968    969 ar
   841    968    977 ar
   842    969    970 ar
   843    970    971 ar
   844    971    972 ar
   845    971    977 ar
   846    972    973 1
   847    972    974 ar
   848    974    975 ar
   849    975    976 ar
   850    976    977 ar
   851    989    990 1
   852    989    991 1
   853    989    992 1
   854    992    993 1
   855    993    994 1
   856    994    995 1
   857    994    996 1
   858    995    999 1
   859    996    997 1
   860    996    998 1
   861    998    999 1
   862    999   1000 1
   863   1000   1001 am
   864   1000   1007 1
   865   1001   1002 2
   866   1001   1003 1
   867   1003   1004 2
   868   1004   1005 2
   869   1004   1006 2
   870   1006   1007 2
   871    405    387 1
   872    406    387 1
   873    407    388 1
   874    408    390 1
   875    409    392 1
   876    410    392 1
   877    411    393 1
   878    412    395 1
   879    413    400 1
   880    436    420 1
   881    437    420 1
   882    438    421 1
   883    439    423 1
   884    440    425 1
   885    441    425 1
   886    442    426 1
   887    443    430 1
   888    444    435 1
   889    470    452 1
   890    471    452 1
   891    472    453 1
   892    473    455 1
   893    474    457 1
   894    475    457 1
   895    476    458 1
   896    477    460 1
   897    478    465 1
   898    502    485 1
   899    503    485 1
   900    504    486 1
   901    505    488 1
   902    506    490 1
   903    507    490 1
   904    508    491 1
   905    509    493 1
   906    510    499 1
   907    534    517 1
   908    535    517 1
   909    536    518 1
   910    537    520 1
   911    538    522 1
   912    539    522 1
   913    540    523 1
   914    541    525 1
   915    542    531 1
   916    565    549 1
   917    566    549 1
   918    567    550 1
   919    568    552 1
   920    569    554 1
   921    570    554 1
   922    571    555 1
   923    572    559 1
   924    573    564 1
   925    597    581 1
   926    598    581 1
   927    599    582 1
   928    600    584 1
   929    601    586 1
   930    602    586 1
   931    603    587 1
   932    604    591 1
   933    605    596 1
   934    628    613 1
   935    629    613 1
   936    630    614 1
   937    631    616 1
   938    632    618 1
   939    633    618 1
   940    634    619 1
   941    635    626 1
   942    636    627 1
   943    660    643 1
   944    661    643 1
   945    662    644 1
   946    663    646 1
   947    664    648 1
   948    665    648 1
   949    666    649 1
   950    667    651 1
   951    668    657 1
   952    690    675 1
   953    691    675 1
   954    692    676 1
   955    693    678 1
   956    694    680 1
   957    695    680 1
   958    696    681 1
   959    697    688 1
   960    698    689 1
   961    723    705 1
   962    724    705 1
   963    725    706 1
   964    726    708 1
   965    727    710 1
   966    728    710 1
   967    729    711 1
   968    730    713 1
   969    731    718 1
   970    754    738 1
   971    755    738 1
   972    756    739 1
   973    757    741 1
   974    758    743 1
   975    759    743 1
   976    760    744 1
   977    761    748 1
   978    762    753 1
   979    788    770 1
   980    789    770 1
   981    790    771 1
   982    791    773 1
   983    792    775 1
   984    793    775 1
   985    794    776 1
   986    795    778 1
   987    796    783 1
   988    820    803 1
   989    821    803 1
   990    822    804 1
   991    823    806 1
   992    824    808 1
   993    825    808 1
   994    826    809 1
   995    827    811 1
   996    828    817 1
   997    852    835 1
   998    853    835 1
   999    854    836 1
  1000    855    838 1
  1001    856    840 1
  1002    857    840 1
  1003    858    841 1
  1004    859    843 1
  1005    860    849 1
  1006    883    867 1
  1007    884    867 1
  1008    885    868 1
  1009    886    870 1
  1010    887    872 1
  1011    888    872 1
  1012    889    873 1
  1013    890    877 1
  1014    891    882 1
  1015    915    899 1
  1016    916    899 1
  1017    917    900 1
  1018    918    902 1
  1019    919    904 1
  1020    920    904 1
  1021    921    905 1
  1022    922    909 1
  1023    923    914 1
  1024    946    931 1
  1025    947    931 1
  1026    948    932 1
  1027    949    934 1
  1028    950    936 1
  1029    951    936 1
  1030    952    937 1
  1031    953    944 1
  1032    954    945 1
  1033    978    961 1
  1034    979    961 1
  1035    980    962 1
  1036    981    964 1
  1037    982    966 1
  1038    983    966 1
  1039    984    967 1
  1040    985    969 1
  1041    986    975 1
  1042   1008    993 1
  1043   1009    993 1
  1044   1010    994 1
  1045   1011    996 1
  1046   1012    998 1
  1047   1013    998 1
  1048   1014    999 1
  1049   1015   1006 1
  1050   1016   1007 1
  1051    414    402 1
  1052    415    402 1
  1053    479    467 1
  1054    480    467 1
  1055    637    625 1
  1056    638    625 1
  1057    699    687 1
  1058    700    687 1
  1059    732    720 1
  1060    733    720 1
  1061    797    785 1
  1062    798    785 1
  1063    955    943 1
  1064    956    943 1
  1065   1017   1005 1
  1066   1018   1005 1
  1067    511    497 1
  1068    512    497 1
  1069    543    529 1
  1070    544    529 1
  1071    669    655 1
  1072    670    655 1
  1073    829    815 1
  1074    830    815 1
  1075    861    847 1
  1076    862    847 1
  1077    987    973 1
  1078    988    973 1
  1079    445    434 1
  1080    446    434 1
  1081    447    434 1
  1082    574    563 1
  1083    575    563 1
  1084    576    563 1
  1085    606    595 1
  1086    607    595 1
  1087    608    595 1
  1088    763    752 1
  1089    764    752 1
  1090    765    752 1
  1091    892    881 1
  1092    893    881 1
  1093    894    881 1
  1094    924    913 1
  1095    925    913 1
  1096    926    913 1
  1097    679   1019 1
  1098    701   1633 1
  1099   1027   1052 1
  1100   1060   1084 1
  1101   1092   1117 1
  1102   1125   1149 1
  1103   1157   1181 1
  1104   1189   1213 1
  1105   1221   1245 1
  1106   1253   1275 1
  1107   1283   1307 1
  1108   1345   1370 1
  1109   1378   1402 1
  1110   1410   1435 1
  1111   1443   1467 1
  1112   1475   1499 1
  1113   1507   1531 1
  1114   1539   1563 1
  1115   1571   1593 1
  1116   1601   1625 1
  1117   1019   1020 1
  1118   1019   1021 1
  1119   1019   1022 1
  1120   1022   1023 1
  1121   1023   1024 1
  1122   1024   1025 1
  1123   1024   1026 1
  1124   1025   1029 1
  1125   1026   1027 1
  1126   1026   1028 1
  1127   1028   1029 1
  1128   1029   1030 1
  1129   1030   1031 ar
  1130   1030   1040 ar
  1131   1031   1032 ar
  1132   1032   1033 ar
  1133   1033   1034 1
  1134   1033   1040 ar
  1135   1034   1035 2
  1136   1034   1036 am
  1137   1036   1037 1
  1138   1037   1038 2
  1139   1037   1039 2
  1140   1039   1040 1
  1141   1052   1053 1
  1142   1052   1054 1
  1143   1052   1055 1
  1144   1055   1056 1
  1145   1056   1057 1
  1146   1057   1058 1
  1147   1057   1059 1
  1148   1058   1062 1
  1149   1059   1060 1
  1150   1059   1061 1
  1151   1061   1062 1
  1152   1062   1063 1
  1153   1063   1064 am
  1154   1063   1071 1
  1155   1064   1065 2
  1156   1064   1066 am
  1157   1066   1067 am
  1158   1067   1068 2
  1159   1067   1069 1
  1160   1069   1070 1
  1161   1069   1071 2
  1162   1084   1085 1
  1163   1084   1086 1
  1164   1084   1087 1
  1165   1087   1088 1
  1166   1088   1089 1
  1167   1089   1090 1
  1168   1089   1091 1
  1169   1090   1094 1
  1170   1091   1092 1
  1171   1091   1093 1
  1172   1093   1094 1
  1173   1094   1095 1
  1174   1095   1096 ar
  1175   1095   1105 ar
  1176   1096   1097 ar
  1177   1097   1098 ar
  1178   1098   1099 1
  1179   1098   1105 ar
  1180   1099   1100 2
  1181   1099   1101 am
  1182   1101   1102 1
  1183   1102   1103 2
  1184   1102   1104 2
  1185   1104   1105 1
  1186   1117   1118 1
  1187   1117   1119 1
  1188   1117   1120 1
  1189   1120   1121 1
  1190   1121   1122 1
  1191   1122   1123 1
  1192   1122   1124 1
  1193   1123   1127 1
  1194   1124   1125 1
  1195   1124   1126 1
  1196   1126   1127 1
  1197   1127   1128 1
  1198   1128   1129 ar
  1199   1128   1137 ar
  1200   1129   1130 ar
  1201   1130   1131 ar
  1202   1131   1132 ar
  1203   1131   1137 ar
  1204   1132   1133 1
  1205   1132   1134 ar
  1206   1134   1135 ar
  1207   1135   1136 ar
  1208   1136   1137 ar
  1209   1149   1150 1
  1210   1149   1151 1
  1211   1149   1152 1
  1212   1152   1153 1
  1213   1153   1154 1
  1214   1154   1155 1
  1215   1154   1156 1
  1216   1155   1159 1
  1217   1156   1157 1
  1218   1156   1158 1
  1219   1158   1159 1
  1220   1159   1160 1
  1221   1160   1161 ar
  1222   1160   1169 ar
  1223   1161   1162 ar
  1224   1162   1163 ar
  1225   1163   1164 ar
  1226   1163   1169 ar
  1227   1164   1165 1
  1228   1164   1166 ar
  1229   1166   1167 ar
  1230   1167   1168 ar
  1231   1168   1169 ar
  1232   1181   1182 1
  1233   1181   1183 1
  1234   1181   1184 1
  1235   1184   1185 1
  1236   1185   1186 1
  1237   1186   1187 1
  1238   1186   1188 1
  1239   1187   1191 1
  1240   1188   1189 1
  1241   1188   1190 1
  1242   1190   1191 1
  1243   1191   1192 1
  1244   1192   1193 am
  1245   1192   1200 1
  1246   1193   1194 2
  1247   1193   1195 am
  1248   1195   1196 am
  1249   1196   1197 2
  1250   1196   1198 1
  1251   1198   1199 1
  1252   1198   1200 2
  1253   1213   1214 1
  1254   1213   1215 1
  1255   1213   1216 1
  1256   1216   1217 1
  1257   1217   1218 1
  1258   1218   1219 1
  1259   1218   1220 1
  1260   1219   1223 1
  1261   1220   1221 1
  1262   1220   1222 1
  1263   1222   1223 1
  1264   1223   1224 1
  1265   1224   1225 am
  1266   1224   1232 1
  1267   1225   1226 2
  1268   1225   1227 am
  1269   1227   1228 am
  1270   1228   1229 2
  1271   1228   1230 1
  1272   1230   1231 1
  1273   1230   1232 2
  1274   1245   1246 1
  1275   1245   1247 1
  1276   1245   1248 1
  1277   1248   1249 1
  1278   1249   1250 1
  1279   1250   1251 1
  1280   1250   1252 1
  1281   1251   1255 1
  1282   1252   1253 1
  1283   1252   1254 1
  1284   1254   1255 1
  1285   1255   1256 1
  1286   1256   1257 am
  1287   1256   1263 1
  1288   1257   1258 2
  1289   1257   1259 1
  1290   1259   1260 2
  1291   1260   1261 2
  1292   1260   1262 2
  1293   1262   1263 2
  1294   1275   1276 1
  1295   1275   1277 1
  1296   1275   1278 1
  1297   1278   1279 1
  1298   1279   1280 1
  1299   1280   1281 1
  1300   1280   1282 1
  1301   1281   1285 1
  1302   1282   1283 1
  1303   1282   1284 1
  1304   1284   1285 1
  1305   1285   1286 1
  1306   1286   1287 ar
  1307   1286   1295 ar
  1308   1287   1288 ar
  1309   1288   1289 ar
  1310   1289   1290 ar
  1311   1289   1295 ar
  1312   1290   1291 1
  1313   1290   1292 ar
  1314   1292   1293 ar
  1315   1293   1294 ar
  1316   1294   1295 ar
  1317   1307   1308 1
  1318   1307   1309 1
  1319   1307   1310 1
  1320   1310   1311 1
  1321   1311   1312 1
  1322   1312   1313 1
  1323   1312   1314 1
  1324   1313   1317 1
  1325   1314   1315 1
  1326   1314   1316 1
  1327   1316   1317 1
  1328   1317   1318 1
  1329   1318   1319 am
  1330   1318   1325 1
  1331   1319   1320 2
  1332   1319   1321 1
  1333   1321   1322 2
  1334   1322   1323 2
  1335   1322   1324 2
  1336   1324   1325 2
  1337   1337   1338 1
  1338   1337   1339 1
  1339   1337   1340 1
  1340   1340   1341 1
  1341   1341   1342 1
  1342   1342   1343 1
  1343   1342   1344 1
  1344   1343   1347 1
  1345   1344   1345 1
  1346   1344   1346 1
  1347   1346   1347 1
  1348   1347   1348 1
  1349   1348   1349 ar
  1350   1348   1358 ar
  1351   1349   1350 ar
  1352   1350   1351 ar
  1353   1351   1352 1
  1354   1351   1358 ar
  1355   1352   1353 2
  1356   1352   1354 am
  1357   1354   1355 1
  1358   1355   1356 2
  1359   1355   1357 2
  1360   1357   1358 1
  1361   1370   1371 1
  1362   1370   1372 1
  1363   1370   1373 1
  1364   1373   1374 1
  1365   1374   1375 1
  1366   1375   1376 1
  1367   1375   1377 1
  1368   1376   1380 1
  1369   1377   1378 1
  1370   1377   1379 1
  1371   1379   1380 1
  1372   1380   1381 1
  1373   1381   1382 am
  1374   1381   1389 1
  1375   1382   1383 2
  1376   1382   1384 am
  1377   1384   1385 am
  1378   1385   1386 2
  1379   1385   1387 1
  1380   1387   1388 1
  1381   1387   1389 2
  1382   1402   1403 1
  1383   1402   1404 1
  1384   1402   1405 1
  1385   1405   1406 1
  1386   1406   1407 1
  1387   1407   1408 1
  1388   1407   1409 1
  1389   1408   1412 1
  1390   1409   1410 1
  1391   1409   1411 1
  1392   1411   1412 1
  1393   1412   1413 1
  1394   1413   1414 ar
  1395   1413   1423 ar
  1396   1414   1415 ar
  1397   1415   1416 ar
  1398   1416   1417 1
  1399   1416   1423 ar
  1400   1417   1418 2
  1401   1417   1419 am
  1402   1419   1420 1
  1403   1420   1421 2
  1404   1420   1422 2
  1405   1422   1423 1
  1406   1435   1436 1
  1407   1435   1437 1
  1408   1435   1438 1
  1409   1438   1439 1
  1410   1439   1440 1
  1411   1440   1441 1
  1412   1440   1442 1
  1413   1441   1445 1
  1414   1442   1443 1
  1415   1442   1444 1
  1416   1444   1445 1
  1417   1445   1446 1
  1418   1446   1447 ar
  1419   1446   1455 ar
  1420   1447   1448 ar
  1421   1448   1449 ar
  1422   1449   1450 ar
  1423   1449   1455 ar
  1424   1450   1451 1
  1425   1450   1452 ar
  1426   1452   1453 ar
  1427   1453   1454 ar
  1428   1454   1455 ar
  1429   1467   1468 1
  1430   1467   1469 1
  1431   1467   1470 1
  1432   1470   1471 1
  1433   1471   1472 1
  1434   1472   1473 1
  1435   1472   1474 1
  1436   1473   1477 1
  1437   1474   1475 1
  1438   1474   1476 1
  1439   1476   1477 1
  1440   1477   1478 1
  1441   1478   1479 ar
  1442   1478   1487 ar
  1443   1479   1480 ar
  1444   1480   1481 ar
  1445   1481   1482 ar
  1446   1481   1487 ar
  1447   1482   1483 1
  1448   1482   1484 ar
  1449   1484   1485 ar
  1450   1485   1486 ar
  1451   1486   1487 ar
  1452   1499   1500 1
  1453   1499   1501 1
  1454   1499   1502 1
  1455   1502   1503 1
  1456   1503   1504 1
  1457   1504   1505 1
  1458   1504   1506 1
  1459   1505   1509 1
  1460   1506   1507 1
  1461   1506   1508 1
  1462   1508   1509 1
  1463   1509   1510 1
  1464   1510   1511 am
  1465   1510   1518 1
  1466   1511   1512 2
  1467   1511   1513 am
  1468   1513   1514 am
  1469   1514   1515 2
  1470   1514   1516 1
  1471   1516   1517 1
  1472   1516   1518 2
  1473   1531   1532 1
  1474   1531   1533 1
  1475   1531   1534 1
  1476   1534   1535 1
  1477   1535   1536 1
  1478   1536   1537 1
  1479   1536   1538 1
  1480   1537   1541 1
  1481   1538   1539 1
  1482   1538   1540 1
  1483   1540   1541 1
  1484   1541   1542 1
  1485   1542   1543 am
  1486   1542   1550 1
  1487   1543   1544 2
  1488   1543   1545 am
  1489   1545   1546 am
  1490   1546   1547 2
  1491   1546   1548 1
  1492   1548   1549 1
  1493   1548   1550 2
  1494   1563   1564 1
  1495   1563   1565 1
  1496   1563   1566 1
  1497   1566   1567 1
  1498   1567   1568 1
  1499   1568   1569 1
  1500   1568   1570 1
  1501   1569   1573 1
  1502   1570   1571 1
  1503   1570   1572 1
  1504   1572   1573 1
  1505   1573   1574 1
  1506   1574   1575 am
  1507   1574   1581 1
  1508   1575   1576 2
  1509   1575   1577 1
  1510   1577   1578 2
  1511   1578   1579 2
  1512   1578   1580 2
  1513   1580   1581 2
  1514   1593   1594 1
  1515   1593   1595 1
  1516   1593   1596 1
  1517   1596   1597 1
  1518   1597   1598 1
  1519   1598   1599 1
  1520   1598   1600 1
  1521   1599   1603 1
  1522   1600   1601 1
  1523   1600   1602 1
  1524   1602   1603 1
  1525   1603   1604 1
  1526   1604   1605 ar
  1527   1604   1613 ar
  1528   1605   1606 ar
  1529   1606   1607 ar
  1530   1607   1608 ar
  1531   1607   1613 ar
  1532   1608   1609 1
  1533   1608   1610 ar
  1534   1610   1611 ar
  1535   1611   1612 ar
  1536   1612   1613 ar
  1537   1625   1626 1
  1538   1625   1627 1
  1539   1625   1628 1
  1540   1628   1629 1
  1541   1629   1630 1
  1542   1630   1631 1
  1543   1630   1632 1
  1544   1631   1635 1
  1545   1632   1633 1
  1546   1632   1634 1
  1547   1634   1635 1
  1548   1635   1636 1
  1549   1636   1637 am
  1550   1636   1643 1
  1551   1637   1638 2
  1552   1637   1639 1
  1553   1639   1640 2
  1554   1640   1641 2
  1555   1640   1642 2
  1556   1642   1643 2
  1557   1041   1023 1
  1558   1042   1023 1
  1559   1043   1024 1
  1560   1044   1026 1
  1561   1045   1028 1
  1562   1046   1028 1
  1563   1047   1029 1
  1564   1048   1031 1
  1565   1049   1036 1
  1566   1072   1056 1
  1567   1073   1056 1
  1568   1074   1057 1
  1569   1075   1059 1
  1570   1076   1061 1
  1571   1077   1061 1
  1572   1078   1062 1
  1573   1079   1066 1
  1574   1080   1071 1
  1575   1106   1088 1
  1576   1107   1088 1
  1577   1108   1089 1
  1578   1109   1091 1
  1579   1110   1093 1
  1580   1111   1093 1
  1581   1112   1094 1
  1582   1113   1096 1
  1583   1114   1101 1
  1584   1138   1121 1
  1585   1139   1121 1
  1586   1140   1122 1
  1587   1141   1124 1
  1588   1142   1126 1
  1589   1143   1126 1
  1590   1144   1127 1
  1591   1145   1129 1
  1592   1146   1135 1
  1593   1170   1153 1
  1594   1171   1153 1
  1595   1172   1154 1
  1596   1173   1156 1
  1597   1174   1158 1
  1598   1175   1158 1
  1599   1176   1159 1
  1600   1177   1161 1
  1601   1178   1167 1
  1602   1201   1185 1
  1603   1202   1185 1
  1604   1203   1186 1
  1605   1204   1188 1
  1606   1205   1190 1
  1607   1206   1190 1
  1608   1207   1191 1
  1609   1208   1195 1
  1610   1209   1200 1
  1611   1233   1217 1
  1612   1234   1217 1
  1613   1235   1218 1
  1614   1236   1220 1
  1615   1237   1222 1
  1616   1238   1222 1
  1617   1239   1223 1
  1618   1240   1227 1
  1619   1241   1232 1
  1620   1264   1249 1
  1621   1265   1249 1
  1622   1266   1250 1
  1623   1267   1252 1
  1624   1268   1254 1
  1625   1269   1254 1
  1626   1270   1255 1
  1627   1271   1262 1
  1628   1272   1263 1
  1629   1296   1279 1
  1630   1297   1279 1
  1631   1298   1280 1
  1632   1299   1282 1
  1633   1300   1284 1
  1634   1301   1284 1
  1635   1302   1285 1
  1636   1303   1287 1
  1637   1304   1293 1
  1638   1326   1311 1
  1639   1327   1311 1
  1640   1328   1312 1
  1641   1329   1314 1
  1642   1330   1316 1
  1643   1331   1316 1
  1644   1332   1317 1
  1645   1333   1324 1
  1646   1334   1325 1
  1647   1359   1341 1
  1648   1360   1341 1
  1649   1361   1342 1
  1650   1362   1344 1
  1651   1363   1346 1
  1652   1364   1346 1
  1653   1365   1347 1
  1654   1366   1349 1
  1655   1367   1354 1
  1656   1390   1374 1
  1657   1391   1374 1
  1658   1392   1375 1
  1659   1393   1377 1
  1660   1394   1379 1
  1661   1395   1379 1
  1662   1396   1380 1
  1663   1397   1384 1
  1664   1398   1389 1
  1665   1424   1406 1
  1666   1425   1406 1
  1667   1426   1407 1
  1668   1427   1409 1
  1669   1428   1411 1
  1670   1429   1411 1
  1671   1430   1412 1
  1672   1431   1414 1
  1673   1432   1419 1
  1674   1456   1439 1
  1675   1457   1439 1
  1676   1458   1440 1
  1677   1459   1442 1
  1678   1460   1444 1
  1679   1461   1444 1
  1680   1462   1445 1
  1681   1463   1447 1
  1682   1464   1453 1
  1683   1488   1471 1
  1684   1489   1471 1
  1685   1490   1472 1
  1686   1491   1474 1
  1687   1492   1476 1
  1688   1493   1476 1
  1689   1494   1477 1
  1690   1495   1479 1
  1691   1496   1485 1
  1692   1519   1503 1
  1693   1520   1503 1
  1694   1521   1504 1
  1695   1522   1506 1
  1696   1523   1508 1
  1697   1524   1508 1
  1698   1525   1509 1
  1699   1526   1513 1
  1700   1527   1518 1
  1701   1551   1535 1
  1702   1552   1535 1
  1703   1553   1536 1
  1704   1554   1538 1
  1705   1555   1540 1
  1706   1556   1540 1
  1707   1557   1541 1
  1708   1558   1545 1
  1709   1559   1550 1
  1710   1582   1567 1
  1711   1583   1567 1
  1712   1584   1568 1
  1713   1585   1570 1
  1714   1586   1572 1
  1715   1587   1572 1
  1716   1588   1573 1
  1717   1589   1580 1
  1718   1590   1581 1
  1719   1614   1597 1
  1720   1615   1597 1
  1721   1616   1598 1
  1722   1617   1600 1
  1723   1618   1602 1
  1724   1619   1602 1
  1725   1620   1603 1
  1726   1621   1605 1
  1727   1622   1611 1
  1728   1644   1629 1
  1729   1645   1629 1
  1730   1646   1630 1
  1731   1647   1632 1
  1732   1648   1634 1
  1733   1649   1634 1
  1734   1650   1635 1
  1735   1651   1642 1
  1736   1652   1643 1
  1737   1050   1038 1
  1738   1051   1038 1
  1739   1115   1103 1
  1740   1116   1103 1
  1741   1273   1261 1
  1742   1274   1261 1
  1743   1335   1323 1
  1744   1336   1323 1
  1745   1368   1356 1
  1746   1369   1356 1
  1747   1433   1421 1
  1748   1434   1421 1
  1749   1591   1579 1
  1750   1592   1579 1
  1751   1653   1641 1
  1752   1654   1641 1
  1753   1147   1133 1
  1754   1148   1133 1
  1755   1179   1165 1
  1756   1180   1165 1
  1757   1305   1291 1
  1758   1306   1291 1
  1759   1465   1451 1
  1760   1466   1451 1
  1761   1497   1483 1
  1762   1498   1483 1
  1763   1623   1609 1
  1764   1624   1609 1
  1765   1081   1070 1
  1766   1082   1070 1
  1767   1083   1070 1
  1768   1210   1199 1
  1769   1211   1199 1
  1770   1212   1199 1
  1771   1242   1231 1
  1772   1243   1231 1
  1773   1244   1231 1
  1774   1399   1388 1
  1775   1400   1388 1
  1776   1401   1388 1
  1777   1528   1517 1
  1778   1529   1517 1
  1779   1530   1517 1
  1780   1560   1549 1
  1781   1561   1549 1
  1782   1562   1549 1
  1783   1315   1655 1
  1784   1337   2079 1
  1785   1663   1688 1
  1786   1696   1720 1
  1787   1728   1753 1
  1788   1761   1785 1
  1789   1793   1817 1
  1790   1825   1849 1
  1791   1889   1913 1
  1792   1921   1945 1
  1793   1953   1977 1
  1794   1985   2009 1
  1795   2017   2039 1
  1796   2047   2071 1
  1797   1655   1656 1
  1798   1655   1657 1
  1799   1655   1658 1
  1800   1658   1659 1
  1801   1659   1660 1
  1802   1660   1661 1
  1803   1660   1662 1
  1804   1661   1665 1
  1805   1662   1663 1
  1806   1662   1664 1
  1807   1664   1665 1
  1808   1665   1666 1
  1809   1666   1667 ar
  1810   1666   1676 ar
  1811   1667   1668 ar
  1812   1668   1669 ar
  1813   1669   1670 1
  1814   1669   1676 ar
  1815   1670   1671 2
  1816   1670   1672 am
  1817   1672   1673 1
  1818   1673   1674 2
  1819   1673   1675 2
  1820   1675   1676 1
  1821   1688   1689 1
  1822   1688   1690 1
  1823   1688   1691 1
  1824   1691   1692 1
  1825   1692   1693 1
  1826   1693   1694 1
  1827   1693   1695 1
  1828   1694   1698 1
  1829   1695   1696 1
  1830   1695   1697 1
  1831   1697   1698 1
  1832   1698   1699 1
  1833   1699   1700 am
  1834   1699   1707 1
  1835   1700   1701 2
  1836   1700   1702 am
  1837   1702   1703 am
  1838   1703   1704 2
  1839   1703   1705 1
  1840   1705   1706 1
  1841   1705   1707 2
  1842   1720   1721 1
  1843   1720   1722 1
  1844   1720   1723 1
  1845   1723   1724 1
  1846   1724   1725 1
  1847   1725   1726 1
  1848   1725   1727 1
  1849   1726   1730 1
  1850   1727   1728 1
  1851   1727   1729 1
  1852   1729   1730 1
  1853   1730   1731 1
  1854   1731   1732 ar
  1855   1731   1741 ar
  1856   1732   1733 ar
  1857   1733   1734 ar
  1858   1734   1735 1
  1859   1734   1741 ar
  1860   1735   1736 2
  1861   1735   1737 am
  1862   1737   1738 1
  1863   1738   1739 2
  1864   1738   1740 2
  1865   1740   1741 1
  1866   1753   1754 1
  1867   1753   1755 1
  1868   1753   1756 1
  1869   1756   1757 1
  1870   1757   1758 1
  1871   1758   1759 1
  1872   1758   1760 1
  1873   1759   1763 1
  1874   1760   1761 1
  1875   1760   1762 1
  1876   1762   1763 1
  1877   1763   1764 1
  1878   1764   1765 ar
  1879   1764   1773 ar
  1880   1765   1766 ar
  1881   1766   1767 ar
  1882   1767   1768 ar
  1883   1767   1773 ar
  1884   1768   1769 1
  1885   1768   1770 ar
  1886   1770   1771 ar
  1887   1771   1772 ar
  1888   1772   1773 ar
  1889   1785   1786 1
  1890   1785   1787 1
  1891   1785   1788 1
  1892   1788   1789 1
  1893   1789   1790 1
  1894   1790   1791 1
  1895   1790   1792 1
  1896   1791   1795 1
  1897   1792   1793 1
  1898   1792   1794 1
  1899   1794   1795 1
  1900   1795   1796 1
  1901   1796   1797 ar
  1902   1796   1805 ar
  1903   1797   1798 ar
  1904   1798   1799 ar
  1905   1799   1800 ar
  1906   1799   1805 ar
  1907   1800   1801 1
  1908   1800   1802 ar
  1909   1802   1803 ar
  1910   1803   1804 ar
  1911   1804   1805 ar
  1912   1817   1818 1
  1913   1817   1819 1
  1914   1817   1820 1
  1915   1820   1821 1
  1916   1821   1822 1
  1917   1822   1823 1
  1918   1822   1824 1
  1919   1823   1827 1
  1920   1824   1825 1
  1921   1824   1826 1
  1922   1826   1827 1
  1923   1827   1828 1
  1924   1828   1829 am
  1925   1828   1836 1
  1926   1829   1830 2
  1927   1829   1831 am
  1928   1831   1832 am
  1929   1832   1833 2
  1930   1832   1834 1
  1931   1834   1835 1
  1932   1834   1836 2
  1933   1849   1850 1
  1934   1849   1851 1
  1935   1849   1852 1
  1936   1852   1853 1
  1937   1853   1854 1
  1938   1854   1855 1
  1939   1854   1856 1
  1940   1855   1859 1
  1941   1856   1857 1
  1942   1856   1858 1
  1943   1858   1859 1
  1944   1859   1860 1
  1945   1860   1861 am
  1946   1860   1868 1
  1947   1861   1862 2
  1948   1861   1863 am
  1949   1863   1864 am
  1950   1864   1865 2
  1951   1864   1866 1
  1952   1866   1867 1
  1953   1866   1868 2
  1954   1881   1882 1
  1955   1881   1883 1
  1956   1881   1884 1
  1957   1884   1885 1
  1958   1885   1886 1
  1959   1886   1887 1
  1960   1886   1888 1
  1961   1887   1891 1
  1962   1888   1889 1
  1963   1888   1890 1
  1964   1890   1891 1
  1965   1891   1892 1
  1966   1892   1893 ar
  1967   1892   1901 ar
  1968   1893   1894 ar
  1969   1894   1895 ar
  1970   1895   1896 ar
  1971   1895   1901 ar
  1972   1896   1897 1
  1973   1896   1898 ar
  1974   1898   1899 ar
  1975   1899   1900 ar
  1976   1900   1901 ar
  1977   1913   1914 1
  1978   1913   1915 1
  1979   1913   1916 1
  1980   1916   1917 1
  1981   1917   1918 1
  1982   1918   1919 1
  1983   1918   1920 1
  1984   1919   1923 1
  1985   1920   1921 1
  1986   1920   1922 1
  1987   1922   1923 1
  1988   1923   1924 1
  1989   1924   1925 ar
  1990   1924   1933 ar
  1991   1925   1926 ar
  1992   1926   1927 ar
  1993   1927   1928 ar
  1994   1927   1933 ar
  1995   1928   1929 1
  1996   1928   1930 ar
  1997   1930   1931 ar
  1998   1931   1932 ar
  1999   1932   1933 ar
  2000   1945   1946 1
  2001   1945   1947 1
  2002   1945   1948 1
  2003   1948   1949 1
  2004   1949   1950 1
  2005   1950   1951 1
  2006   1950   1952 1
  2007   1951   1955 1
  2008   1952   1953 1
  2009   1952   1954 1
  2010   1954   1955 1
  2011   1955   1956 1
  2012   1956   1957 am
  2013   1956   1964 1
  2014   1957   1958 2
  2015   1957   1959 am
  2016   1959   1960 am
  2017   1960   1961 2
  2018   1960   1962 1
  2019   1962   1963 1
  2020   1962   1964 2
  2021   1977   1978 1
  2022   1977   1979 1
  2023   1977   1980 1
  2024   1980   1981 1
  2025   1981   1982 1
  2026   1982   1983 1
  2027   1982   1984 1
  2028   1983   1987 1
  2029   1984   1985 1
  2030   1984   1986 1
  2031   1986   1987 1
  2032   1987   1988 1
  2033   1988   1989 am
  2034   1988   1996 1
  2035   1989   1990 2
  2036   1989   1991 am
  2037   1991   1992 am
  2038   1992   1993 2
  2039   1992   1994 1
  2040   1994   1995 1
  2041   1994   1996 2
  2042   2009   2010 1
  2043   2009   2011 1
  2044   2009   2012 1
  2045   2012   2013 1
  2046   2013   2014 1
  2047   2014   2015 1
  2048   2014   2016 1
  2049   2015   2019 1
  2050   2016   2017 1
  2051   2016   2018 1
  2052   2018   2019 1
  2053   2019   2020 1
  2054   2020   2021 am
  2055   2020   2027 1
  2056   2021   2022 2
  2057   2021   2023 1
  2058   2023   2024 2
  2059   2024   2025 2
  2060   2024   2026 2
  2061   2026   2027 2
  2062   2039   2040 1
  2063   2039   2041 1
  2064   2039   2042 1
  2065   2042   2043 1
  2066   2043   2044 1
  2067   2044   2045 1
  2068   2044   2046 1
  2069   2045   2049 1
  2070   2046   2047 1
  2071   2046   2048 1
  2072   2048   2049 1
  2073   2049   2050 1
  2074   2050   2051 ar
  2075   2050   2059 ar
  2076   2051   2052 ar
  2077   2052   2053 ar
  2078   2053   2054 ar
  2079   2053   2059 ar
  2080   2054   2055 1
  2081   2054   2056 ar
  2082   2056   2057 ar
  2083   2057   2058 ar
  2084   2058   2059 ar
  2085   2071   2072 1
  2086   2071   2073 1
  2087   2071   2074 1
  2088   2074   2075 1
  2089   2075   2076 1
  2090   2076   2077 1
  2091   2076   2078 1
  2092   2077   2081 1
  2093   2078   2079 1
  2094   2078   2080 1
  2095   2080   2081 1
  2096   2081   2082 1
  2097   2082   2083 am
  2098   2082   2089 1
  2099   2083   2084 2
  2100   2083   2085 1
  2101   2085   2086 2
  2102   2086   2087 2
  2103   2086   2088 2
  2104   2088   2089 2
  2105   1677   1659 1
  2106   1678   1659 1
  2107   1679   1660 1
  2108   1680   1662 1
  2109   1681   1664 1
  2110   1682   1664 1
  2111   1683   1665 1
  2112   1684   1667 1
  2113   1685   1672 1
  2114   1708   1692 1
  2115   1709   1692 1
  2116   1710   1693 1
  2117   1711   1695 1
  2118   1712   1697 1
  2119   1713   1697 1
  2120   1714   1698 1
  2121   1715   1702 1
  2122   1716   1707 1
  2123   1742   1724 1
  2124   1743   1724 1
  2125   1744   1725 1
  2126   1745   1727 1
  2127   1746   1729 1
  2128   1747   1729 1
  2129   1748   1730 1
  2130   1749   1732 1
  2131   1750   1737 1
  2132   1774   1757 1
  2133   1775   1757 1
  2134   1776   1758 1
  2135   1777   1760 1
  2136   1778   1762 1
  2137   1779   1762 1
  2138   1780   1763 1
  2139   1781   1765 1
  2140   1782   1771 1
  2141   1806   1789 1
  2142   1807   1789 1
  2143   1808   1790 1
  2144   1809   1792 1
  2145   1810   1794 1
  2146   1811   1794 1
  2147   1812   1795 1
  2148   1813   1797 1
  2149   1814   1803 1
  2150   1837   1821 1
  2151   1838   1821 1
  2152   1839   1822 1
  2153   1840   1824 1
  2154   1841   1826 1
  2155   1842   1826 1
  2156   1843   1827 1
  2157   1844   1831 1
  2158   1845   1836 1
  2159   1869   1853 1
  2160   1870   1853 1
  2161   1871   1854 1
  2162   1872   1856 1
  2163   1873   1858 1
  2164   1874   1858 1
  2165   1875   1859 1
  2166   1876   1863 1
  2167   1877   1868 1
  2168   1902   1885 1
  2169   1903   1885 1
  2170   1904   1886 1
  2171   1905   1888 1
  2172   1906   1890 1
  2173   1907   1890 1
  2174   1908   1891 1
  2175   1909   1893 1
  2176   1910   1899 1
  2177   1934   1917 1
  2178   1935   1917 1
  2179   1936   1918 1
  2180   1937   1920 1
  2181   1938   1922 1
  2182   1939   1922 1
  2183   1940   1923 1
  2184   1941   1925 1
  2185   1942   1931 1
  2186   1965   1949 1
  2187   1966   1949 1
  2188   1967   1950 1
  2189   1968   1952 1
  2190   1969   1954 1
  2191   1970   1954 1
  2192   1971   1955 1
  2193   1972   1959 1
  2194   1973   1964 1
  2195   1997   1981 1
  2196   1998   1981 1
  2197   1999   1982 1
  2198   2000   1984 1
  2199   2001   1986 1
  2200   2002   1986 1
  2201   2003   1987 1
  2202   2004   1991 1
  2203   2005   1996 1
  2204   2028   2013 1
  2205   2029   2013 1
  2206   2030   2014 1
  2207   2031   2016 1
  2208   2032   2018 1
  2209   2033   2018 1
  2210   2034   2019 1
  2211   2035   2026 1
  2212   2036   2027 1
  2213   2060   2043 1
  2214   2061   2043 1
  2215   2062   2044 1
  2216   2063   2046 1
  2217   2064   2048 1
  2218   2065   2048 1
  2219   2066   2049 1
  2220   2067   2051 1
  2221   2068   2057 1
  2222   2090   2075 1
  2223   2091   2075 1
  2224   2092   2076 1
  2225   2093   2078 1
  2226   2094   2080 1
  2227   2095   2080 1
  2228   2096   2081 1
  2229   2097   2088 1
  2230   2098   2089 1
  2231   1686   1674 1
  2232   1687   1674 1
  2233   1751   1739 1
  2234   1752   1739 1
  2235   2037   2025 1
  2236   2038   2025 1
  2237   2099   2087 1
  2238   2100   2087 1
  2239   1783   1769 1
  2240   1784   1769 1
  2241   1815   1801 1
  2242   1816   1801 1
  2243   1911   1897 1
  2244   1912   1897 1
  2245   1943   1929 1
  2246   1944   1929 1
  2247   2069   2055 1
  2248   2070   2055 1
  2249   1717   1706 1
  2250   1718   1706 1
  2251   1719   1706 1
  2252   1846   1835 1
  2253   1847   1835 1
  2254   1848   1835 1
  2255   1878   1867 1
  2256   1879   1867 1
  2257   1880   1867 1
  2258   1974   1963 1
  2259   1975   1963 1
  2260   1976   1963 1
  2261   2006   1995 1
  2262   2007   1995 1
  2263   2008   1995 1
@<TRIPOS>MOLECULE
dna-seg-05-bp33
2098 2261 1 0 0
BIOPOLYMER
NO_CHARGES


@<TRIPOS>ATOM
      1 P         -3.8148    -8.2895   519.1441 P.3      168 DC      0.0000
      2 OP1       -3.3715    -9.2710   518.0761 O.co2    168 DC      0.0000
      3 OP2       -5.0409    -8.6501   519.8790 O.co2    168 DC      0.0000
      4 O5'       -2.4727    -7.8692   519.9701 O.3      168 DC      0.0000
      5 C5'       -1.6258    -7.2265   518.9478 C.3      168 DC      0.0000
      6 C4'       -0.3869    -6.7401   519.6443 C.3      168 DC      0.0000
      7 O4'       -0.4133    -5.3684   519.8913 O.3      168 DC      0.0000
      8 C3'       -0.0407    -7.4725   520.9358 C.3      168 DC      0.0000
      9 O3'        1.2687    -8.0201   520.8561 O.3      168 DC      0.0000
     10 C2'       -0.3112    -6.3916   521.9846 C.3      168 DC      0.0000
     11 C1'       -0.0438    -5.1163   521.2882 C.3      168 DC      0.0000
     12 N1        -0.9090    -3.9800   521.6203 N.am     168 DC      0.0000
     13 C2        -0.2588    -2.7746   521.8761 C.2      168 DC      0.0000
     14 O2         0.9736    -2.6975   521.8806 O.2      168 DC      0.0000
     15 N3        -1.0408    -1.6798   522.1499 N.2      168 DC      0.0000
     16 C4        -2.4025    -1.7568   522.1400 C.2      168 DC      0.0000
     17 N4        -3.0712    -0.6428   522.4168 N.pl3    168 DC      0.0000
     18 C5        -3.0480    -2.9818   521.8620 C.2      168 DC      0.0000
     19 C6        -2.2660    -4.0484   521.5972 C.2      168 DC      0.0000
     20 H5'       -1.3613    -7.9473   518.1742 H        168 DC      0.0000
     21 H5''      -2.1560    -6.3841   518.5036 H        168 DC      0.0000
     22 H4'        0.4420    -6.9147   518.9584 H        168 DC      0.0000
     23 H3'       -0.7523    -8.2856   521.0791 H        168 DC      0.0000
     24 H2'       -1.3466    -6.4349   522.3225 H        168 DC      0.0000
     25 H2''       0.3666    -6.5086   522.8301 H        168 DC      0.0000
     26 H1'        1.0078    -4.8416   521.3691 H        168 DC      0.0000
     27 H5        -4.1251    -3.0614   521.8614 H        168 DC      0.0000
     28 H6        -2.7353    -4.9913   521.3581 H        168 DC      0.0000
     29 H41       -2.5697     0.2109   522.6160 H        168 DC      0.0000
     30 H42       -4.0811    -0.6496   522.4282 H        168 DC      0.0000
     31 P          1.8848    -9.1808   521.8082 P.3      169 DA      0.0000
     32 OP1        2.9769    -9.8719   521.0144 O.co2    169 DA      0.0000
     33 OP2        0.7897   -10.1100   522.1537 O.co2    169 DA      0.0000
     34 O5'        2.4756    -8.3581   523.1052 O.3      169 DA      0.0000
     35 C5'        3.3873    -7.2560   522.8100 C.3      169 DA      0.0000
     36 C4'        3.7637    -6.5395   524.0652 C.3      169 DA      0.0000
     37 O4'        3.0499    -5.3234   524.3074 O.3      169 DA      0.0000
     38 C3'        3.5296    -7.3183   525.3705 C.3      169 DA      0.0000
     39 O3'        4.3284    -6.7315   526.4004 O.3      169 DA      0.0000
     40 C2'        2.0359    -7.0020   525.5851 C.3      169 DA      0.0000
     41 C1'        2.1507    -5.4850   525.4018 C.3      169 DA      0.0000
     42 N9         0.8186    -4.9122   525.3075 N.ar     169 DA      0.0000
     43 C8        -0.4036    -5.5144   525.1916 C.ar     169 DA      0.0000
     44 N7        -1.4335    -4.6874   525.1730 N.ar     169 DA      0.0000
     45 C5        -0.8381    -3.4385   525.2806 C.ar     169 DA      0.0000
     46 C6        -1.3784    -2.1293   525.3151 C.ar     169 DA      0.0000
     47 N6        -2.6661    -1.8479   525.2298 N.pl3    169 DA      0.0000
     48 N1        -0.4786    -1.1108   525.4477 N.ar     169 DA      0.0000
     49 C2         0.8662    -1.3570   525.5279 C.ar     169 DA      0.0000
     50 N3         1.4474    -2.5540   525.4980 N.ar     169 DA      0.0000
     51 C4         0.5393    -3.5530   525.3750 C.ar     169 DA      0.0000
     52 H5'        4.2872    -7.6512   522.3388 H        169 DA      0.0000
     53 H5''       2.9005    -6.5581   522.1287 H        169 DA      0.0000
     54 H4'        4.8249    -6.2977   524.0063 H        169 DA      0.0000
     55 H3'        3.7164    -8.3861   525.2568 H        169 DA      0.0000
     56 H2'        1.3973    -7.4674   524.8343 H        169 DA      0.0000
     57 H2''       1.7155    -7.2582   526.5950 H        169 DA      0.0000
     58 H1'        2.6291    -5.0754   526.2914 H        169 DA      0.0000
     59 H8        -0.5183    -6.5859   525.1206 H        169 DA      0.0000
     60 H2         1.5159    -0.4997   525.6243 H        169 DA      0.0000
     61 H61       -3.2193    -1.0222   525.4099 H        169 DA      0.0000
     62 H62       -3.2200    -2.6316   524.9151 H        169 DA      0.0000
     63 P          5.8866    -7.0676   526.5409 P.3      170 DC      0.0000
     64 OP1        6.4805    -7.6316   525.2958 O.co2    170 DC      0.0000
     65 OP2        5.8993    -8.0411   527.6838 O.co2    170 DC      0.0000
     66 O5'        6.5408    -5.6511   526.8240 O.3      170 DC      0.0000
     67 C5'        6.8441    -4.7261   525.7363 C.3      170 DC      0.0000
     68 C4'        6.7173    -3.3708   526.4413 C.3      170 DC      0.0000
     69 O4'        5.3561    -3.1853   526.7533 O.3      170 DC      0.0000
     70 C3'        7.4961    -3.2830   527.7512 C.3      170 DC      0.0000
     71 O3'        8.3539    -2.1215   527.8191 O.3      170 DC      0.0000
     72 C2'        6.4059    -3.2971   528.8334 C.3      170 DC      0.0000
     73 C1'        5.2755    -2.6335   528.1572 C.3      170 DC      0.0000
     74 N1         3.8911    -2.9374   528.5100 N.am     170 DC      0.0000
     75 C2         3.0207    -1.8493   528.4831 C.2      170 DC      0.0000
     76 O2         3.4003    -0.7035   528.2762 O.2      170 DC      0.0000
     77 N3         1.7069    -2.0937   528.7363 N.2      170 DC      0.0000
     78 C4         1.2305    -3.3405   528.9696 C.2      170 DC      0.0000
     79 N4        -0.0762    -3.4530   529.2005 N.pl3    170 DC      0.0000
     80 C5         2.1265    -4.4447   528.9762 C.2      170 DC      0.0000
     81 C6         3.4215    -4.1959   528.7267 C.2      170 DC      0.0000
     82 H5'        7.8520    -4.8815   525.3515 H        170 DC      0.0000
     83 H5''       6.1081    -4.8156   524.9373 H        170 DC      0.0000
     84 H4'        7.0471    -2.5791   525.7686 H        170 DC      0.0000
     85 H3'        8.1081    -4.1788   527.8571 H        170 DC      0.0000
     86 H2'        6.1493    -4.3169   529.1204 H        170 DC      0.0000
     87 H2''       6.7226    -2.7223   529.7036 H        170 DC      0.0000
     88 H1'        5.4295    -1.5545   528.1439 H        170 DC      0.0000
     89 H5         1.7775    -5.4473   529.1747 H        170 DC      0.0000
     90 H6         4.1149    -5.0233   528.6970 H        170 DC      0.0000
     91 H41       -0.6636    -2.6315   529.1895 H        170 DC      0.0000
     92 H42       -0.4798    -4.3600   529.3867 H        170 DC      0.0000
     93 P         -7.7878     3.3759   530.7786 P.3      170 DG      0.0000
     94 OP1       -9.1754     3.9045   530.9574 O.co2    170 DG      0.0000
     95 OP2       -7.6902     2.3115   529.6938 O.co2    170 DG      0.0000
     96 O5'       -6.7470     4.6342   530.5714 O.3      170 DG      0.0000
     97 C5'       -5.8453     5.0030   531.6671 C.3      170 DG      0.0000
     98 C4'       -4.5135     5.3972   531.0328 C.3      170 DG      0.0000
     99 O4'       -3.6350     4.3093   530.9370 O.3      170 DG      0.0000
    100 C3'       -4.6311     5.9788   529.6265 C.3      170 DG      0.0000
    101 O3'       -3.7347     7.0821   529.3595 O.3      170 DG      0.0000
    102 C2'       -4.3226     4.7704   528.7242 C.3      170 DG      0.0000
    103 C1'       -3.2581     4.0651   529.5480 C.3      170 DG      0.0000
    104 N9        -3.2485     2.6178   529.2747 N.ar     170 DG      0.0000
    105 C8        -4.3271     1.7801   529.1181 C.ar     170 DG      0.0000
    106 N7        -4.0037     0.5332   528.8997 N.ar     170 DG      0.0000
    107 C5        -2.6141     0.5442   528.9245 C.ar     170 DG      0.0000
    108 C6        -1.6652    -0.5011   528.7680 C.2      170 DG      0.0000
    109 O6        -1.9104    -1.6998   528.5712 O.2      170 DG      0.0000
    110 N1        -0.3567    -0.0942   528.8549 N.am     170 DG      0.0000
    111 C2        -0.0044     1.1961   529.0756 C.2      170 DG      0.0000
    112 N2         1.3016     1.4405   529.1389 N.pl3    170 DG      0.0000
    113 N3        -0.8563     2.2165   529.2333 N.2      170 DG      0.0000
    114 C4        -2.1401     1.8166   529.1500 C.ar     170 DG      0.0000
    115 H5'       -6.2579     5.8437   532.2249 H        170 DG      0.0000
    116 H5''      -5.7018     4.1514   532.3320 H        170 DG      0.0000
    117 H4'       -4.0480     6.1496   531.6695 H        170 DG      0.0000
    118 H3'       -5.6583     6.3013   529.4560 H        170 DG      0.0000
    119 H2'       -5.2014     4.1416   528.5815 H        170 DG      0.0000
    120 H2''      -3.9187     5.0955   527.7655 H        170 DG      0.0000
    121 H1'       -2.2772     4.4938   529.3428 H        170 DG      0.0000
    122 H8        -5.3502     2.1221   529.1708 H        170 DG      0.0000
    123 H1         0.3732    -0.7844   528.7501 H        170 DG      0.0000
    124 H21        1.9628     0.6857   529.0238 H        170 DG      0.0000
    125 H22        1.6321     2.3808   529.3021 H        170 DG      0.0000
    126 P         -3.2634     7.2396   527.8360 P.3      169 DT      0.0000
    127 OP1       -2.9377     8.6560   527.4451 O.co2    169 DT      0.0000
    128 OP2       -4.4779     6.7546   527.1355 O.co2    169 DT      0.0000
    129 O5'       -1.9584     6.3192   527.7051 O.3      169 DT      0.0000
    130 C5'       -0.6702     6.9600   527.9728 C.3      169 DT      0.0000
    131 C4'        0.4038     6.2094   527.2157 C.3      169 DT      0.0000
    132 O4'        0.1845     4.8103   527.1884 O.3      169 DT      0.0000
    133 C3'        0.5180     6.6381   525.7610 C.3      169 DT      0.0000
    134 O3'        1.8739     6.6837   525.2659 O.3      169 DT      0.0000
    135 C2'       -0.3112     5.5999   525.0382 C.3      169 DT      0.0000
    136 C1'        0.1070     4.3633   525.8163 C.3      169 DT      0.0000
    137 N1        -0.9777     3.3807   525.6649 N.am     169 DT      0.0000
    138 C2        -0.6137     2.0423   525.7717 C.2      169 DT      0.0000
    139 O2         0.5569     1.7296   525.9615 O.2      169 DT      0.0000
    140 N3        -1.6092     1.1133   525.6516 N.am     169 DT      0.0000
    141 C4        -2.9062     1.4704   525.4340 C.2      169 DT      0.0000
    142 O4        -3.7649     0.5325   525.3364 O.2      169 DT      0.0000
    143 C5        -3.2482     2.8488   525.3276 C.2      169 DT      0.0000
    144 C7        -4.6760     3.2543   525.0987 C.3      169 DT      0.0000
    145 C6        -2.2718     3.7518   525.4494 C.2      169 DT      0.0000
    146 H5'       -0.6989     7.9972   527.6390 H        169 DT      0.0000
    147 H5''      -0.4581     6.9245   529.0414 H        169 DT      0.0000
    148 H4'        1.3604     6.3963   527.7037 H        169 DT      0.0000
    149 H3'        0.0564     7.6177   525.6370 H        169 DT      0.0000
    150 H2'       -1.3794     5.7964   525.1297 H        169 DT      0.0000
    151 H2''      -0.0158     5.5224   523.9918 H        169 DT      0.0000
    152 H1'        1.0608     3.9691   525.4656 H        169 DT      0.0000
    153 H3        -1.3767     0.1333   525.7262 H        169 DT      0.0000
    154 H6        -2.5133     4.8019   525.3752 H        169 DT      0.0000
    155 H71       -5.3006     2.3637   525.0300 H        169 DT      0.0000
    156 H72       -5.0155     3.8727   525.9295 H        169 DT      0.0000
    157 H73       -4.7483     3.8214   524.1705 H        169 DT      0.0000
    158 P          2.0610     8.1375   524.4875 P.3      168 DG      0.0000
    159 OP1        2.6324     9.2083   525.3588 O.co2    168 DG      0.0000
    160 OP2        0.6495     8.3521   524.0820 O.co2    168 DG      0.0000
    161 O5'        3.1721     7.7478   523.4067 O.3      168 DG      0.0000
    162 C5'        4.5557     7.6499   523.8302 C.3      168 DG      0.0000
    163 C4'        5.0027     6.2639   523.3824 C.3      168 DG      0.0000
    164 O4'        3.9814     5.3249   523.6531 O.3      168 DG      0.0000
    165 C3'        5.3385     6.1598   521.8947 C.3      168 DG      0.0000
    166 O3'        6.6539     5.6778   521.6862 O.3      168 DG      0.0000
    167 C2'        4.2279     5.3000   521.3180 C.3      168 DG      0.0000
    168 C1'        3.7994     4.4688   522.5041 C.3      168 DG      0.0000
    169 N9         2.3964     4.0642   522.3806 N.ar     168 DG      0.0000
    170 C8         1.2957     4.8577   522.2217 C.ar     168 DG      0.0000
    171 N7         0.1706     4.1898   522.1436 N.ar     168 DG      0.0000
    172 C5         0.5567     2.8597   522.2812 C.ar     168 DG      0.0000
    173 C6        -0.1908     1.6526   522.2906 C.2      168 DG      0.0000
    174 O6        -1.4079     1.5344   522.1916 O.2      168 DG      0.0000
    175 N1         0.5592     0.5208   522.4396 N.am     168 DG      0.0000
    176 C2         1.9260     0.5628   522.5725 C.2      168 DG      0.0000
    177 N2         2.5345    -0.6158   522.7081 N.pl3    168 DG      0.0000
    178 N3         2.6881     1.6612   522.5768 N.2      168 DG      0.0000
    179 C4         1.9311     2.7747   522.4261 C.ar     168 DG      0.0000
    180 H5'        5.1591     8.4211   523.3514 H        168 DG      0.0000
    181 H5''       4.6249     7.7362   524.9145 H        168 DG      0.0000
    182 H4'        5.8871     5.9856   523.9554 H        168 DG      0.0000
    183 H3'        5.2645     7.1549   521.4561 H        168 DG      0.0000
    184 H2'        3.4056     5.9145   520.9516 H        168 DG      0.0000
    185 H2''       4.6123     4.6617   520.5224 H        168 DG      0.0000
    186 H1'        4.4353     3.5877   522.5912 H        168 DG      0.0000
    187 H8         1.3478     5.9350   522.1656 H        168 DG      0.0000
    188 H1         0.0941    -0.3757   522.4525 H        168 DG      0.0000
    189 H21        1.9914    -1.4674   522.7091 H        168 DG      0.0000
    190 H22        3.5384    -0.6571   522.8099 H        168 DG      0.0000
    191 P         10.0081    -0.4694   532.8201 P.3      171 DG      0.0000
    192 OP1       11.2789    -1.2353   532.8186 O.co2    171 DG      0.0000
    193 OP2        9.1009    -1.1182   533.8758 O.co2    171 DG      0.0000
    194 O5'       10.1196     1.1077   532.9985 O.3      171 DG      0.0000
    195 C5'       10.0231     2.1441   531.9985 C.3      171 DG      0.0000
    196 C4'        9.0491     3.1911   532.4973 C.3      171 DG      0.0000
    197 O4'        7.7273     2.9289   532.0782 O.3      171 DG      0.0000
    198 C3'        8.9869     3.4475   533.9895 C.3      171 DG      0.0000
    199 O3'        9.1854     4.8528   534.3015 O.3      171 DG      0.0000
    200 C2'        7.6267     2.9252   534.4114 C.3      171 DG      0.0000
    201 C1'        6.7971     3.0430   533.1557 C.3      171 DG      0.0000
    202 N9         5.7714     1.9845   533.1267 N.ar     171 DG      0.0000
    203 C8         5.9038     0.6353   533.3556 C.ar     171 DG      0.0000
    204 N7         4.7786    -0.0372   533.2659 N.ar     171 DG      0.0000
    205 C5         3.8352     0.9367   532.9489 C.ar     171 DG      0.0000
    206 C6         2.4387     0.8599   532.7229 C.2      171 DG      0.0000
    207 O6         1.7168    -0.1375   532.7442 O.2      171 DG      0.0000
    208 N1         1.8279     2.0511   532.4414 N.am     171 DG      0.0000
    209 C2         2.4670     3.1754   532.3808 C.2      171 DG      0.0000
    210 N2         1.6692     4.1265   532.0840 N.pl3    171 DG      0.0000
    211 N3         3.8383     3.3532   532.5895 N.2      171 DG      0.0000
    212 C4         4.4301     2.1814   532.8621 C.ar     171 DG      0.0000
    213 H5'       11.0020     2.5964   531.8398 H        171 DG      0.0000
    214 H5''       9.6587     1.7194   531.0631 H        171 DG      0.0000
    215 H4'        9.3410     4.1329   532.0326 H        171 DG      0.0000
    216 H3'        9.7616     2.8610   534.4835 H        171 DG      0.0000
    217 H2'        7.6926     1.8876   534.7384 H        171 DG      0.0000
    218 H2''       7.2091     3.5476   535.2029 H        171 DG      0.0000
    219 H1'        6.3164     4.0208   533.1238 H        171 DG      0.0000
    220 H8         6.8498     0.1691   533.5886 H        171 DG      0.0000
    221 H1         0.8320     2.0536   532.2730 H        171 DG      0.0000
    222 H21        0.6879     3.9361   531.9396 H        171 DG      0.0000
    223 H22        2.0192     5.0696   531.9935 H        171 DG      0.0000
    224 P          8.8940     5.4585   535.7300 P.3      172 DT      0.0000
    225 OP1        9.8866     6.4702   536.2417 O.co2    172 DT      0.0000
    226 OP2        9.0727     4.2361   536.6487 O.co2    172 DT      0.0000
    227 O5'        7.4094     5.9033   535.7586 O.3      172 DT      0.0000
    228 C5'        6.9922     7.2888   535.6146 C.3      172 DT      0.0000
    229 C4'        5.4797     7.2400   535.6721 C.3      172 DT      0.0000
    230 O4'        4.9772     5.9509   535.3970 O.3      172 DT      0.0000
    231 C3'        4.8458     7.6251   536.9849 C.3      172 DT      0.0000
    232 O3'        4.0860     8.8280   536.7967 O.3      172 DT      0.0000
    233 C2'        3.9501     6.4503   537.3771 C.3      172 DT      0.0000
    234 C1'        3.6655     5.8512   536.0243 C.3      172 DT      0.0000
    235 N1         3.3345     4.4293   536.1210 N.am     172 DT      0.0000
    236 C2         2.0285     4.0713   535.9231 C.2      172 DT      0.0000
    237 O2         1.1475     4.8943   535.6849 O.2      172 DT      0.0000
    238 N3         1.7284     2.7382   536.0041 N.am     172 DT      0.0000
    239 C4         2.6577     1.7898   536.2600 C.2      172 DT      0.0000
    240 O4         2.2314     0.6062   536.3053 O.2      172 DT      0.0000
    241 C5         4.0200     2.1831   536.4597 C.2      172 DT      0.0000
    242 C7         5.0782     1.1660   536.7396 C.3      172 DT      0.0000
    243 C6         4.3045     3.4892   536.3782 C.2      172 DT      0.0000
    244 H5'        7.3887     7.8965   536.4281 H        172 DT      0.0000
    245 H5''       7.3209     7.6841   534.6534 H        172 DT      0.0000
    246 H4'        5.0965     7.9157   534.9076 H        172 DT      0.0000
    247 H3'        5.6143     7.7807   537.7420 H        172 DT      0.0000
    248 H2'        4.4720     5.7468   538.0259 H        172 DT      0.0000
    249 H2''       3.0315     6.8026   537.8463 H        172 DT      0.0000
    250 H1'        2.9068     6.4124   535.4790 H        172 DT      0.0000
    251 H3         0.7702     2.4501   535.8666 H        172 DT      0.0000
    252 H6         5.3251     3.8134   536.5186 H        172 DT      0.0000
    253 H71        5.6571     0.9846   535.8341 H        172 DT      0.0000
    254 H72        4.6112     0.2362   537.0644 H        172 DT      0.0000
    255 H73        5.7380     1.5348   537.5249 H        172 DT      0.0000
    256 P          4.1524     9.8297   538.0766 P.3      173 DG      0.0000
    257 OP1        4.1634    11.1748   537.3615 O.co2    173 DG      0.0000
    258 OP2        5.3618     9.5508   538.8301 O.co2    173 DG      0.0000
    259 O5'        2.6969     9.4123   538.6861 O.3      173 DG      0.0000
    260 C5'        1.7003     9.3818   537.5955 C.3      173 DG      0.0000
    261 C4'        0.4784     8.6837   538.1156 C.3      173 DG      0.0000
    262 O4'        0.4264     7.2937   537.9350 O.3      173 DG      0.0000
    263 C3'        0.2440     8.9451   539.6236 C.3      173 DG      0.0000
    264 O3'       -1.1011     9.4575   539.7825 O.3      173 DG      0.0000
    265 C2'        0.5376     7.6111   540.2762 C.3      173 DG      0.0000
    266 C1'        0.0955     6.6323   539.1946 C.3      173 DG      0.0000
    267 N9         0.7366     5.3236   539.3642 N.ar     173 DG      0.0000
    268 C8         2.0321     5.0427   539.7004 C.ar     173 DG      0.0000
    269 N7         2.3105     3.7605   539.7861 N.ar     173 DG      0.0000
    270 C5         1.0997     3.1558   539.4561 C.ar     173 DG      0.0000
    271 C6         0.7405     1.7808   539.3618 C.2      173 DG      0.0000
    272 O6         1.4566     0.7870   539.5541 O.2      173 DG      0.0000
    273 N1        -0.5757     1.5587   539.0267 N.am     173 DG      0.0000
    274 C2        -1.4449     2.5824   538.8029 C.2      173 DG      0.0000
    275 N2        -2.6845     2.1795   538.4941 N.pl3    173 DG      0.0000
    276 N3        -1.1573     3.8801   538.8740 N.2      173 DG      0.0000
    277 C4         0.1279     4.0994   539.2006 C.ar     173 DG      0.0000
    278 H5'        1.4476    10.3986   537.2950 H        173 DG      0.0000
    279 H5''       2.1030     8.8347   536.7431 H        173 DG      0.0000
    280 H4'       -0.3760     9.1039   537.5850 H        173 DG      0.0000
    281 H3'        0.9590     9.6875   539.9784 H        173 DG      0.0000
    282 H2'        1.5991     7.5034   540.4991 H        173 DG      0.0000
    283 H2''      -0.0604     7.4838   541.1786 H        173 DG      0.0000
    284 H1'       -0.9856     6.5060   539.2536 H        173 DG      0.0000
    285 H8         2.7679     5.8125   539.8810 H        173 DG      0.0000
    286 H1        -0.9066     0.6080   538.9444 H        173 DG      0.0000
    287 H21       -2.8971     1.1934   538.4439 H        173 DG      0.0000
    288 H22       -3.4065     2.8617   538.3115 H        173 DG      0.0000
    289 P         -1.6350     9.9382   541.1709 P.3      174 DA      0.0000
    290 OP1       -1.3971    11.3701   541.5262 O.co2    174 DA      0.0000
    291 OP2       -0.6833     9.0631   542.0666 O.co2    174 DA      0.0000
    292 O5'       -3.0723     9.3162   541.4200 O.3      174 DA      0.0000
    293 C5'       -3.9635     8.8617   540.3910 C.3      174 DA      0.0000
    294 C4'       -4.4662     7.5078   540.8653 C.3      174 DA      0.0000
    295 O4'       -3.4397     6.5430   540.7749 O.3      174 DA      0.0000
    296 C3'       -5.0061     7.4493   542.2943 C.3      174 DA      0.0000
    297 O3'       -6.2700     6.7559   542.3466 O.3      174 DA      0.0000
    298 C2'       -3.8842     6.7062   543.0298 C.3      174 DA      0.0000
    299 C1'       -3.5144     5.6982   541.9522 C.3      174 DA      0.0000
    300 N9        -2.2272     5.0340   542.1806 N.ar     174 DA      0.0000
    301 C8        -0.9891     5.5693   542.3963 C.ar     174 DA      0.0000
    302 N7        -0.0423     4.6725   542.5613 N.ar     174 DA      0.0000
    303 C5        -0.7034     3.4614   542.4211 C.ar     174 DA      0.0000
    304 C6        -0.2367     2.1296   542.4691 C.ar     174 DA      0.0000
    305 N6         1.0336     1.7822   542.6888 N.pl3    174 DA      0.0000
    306 N1        -1.1912     1.1707   542.2793 N.ar     174 DA      0.0000
    307 C2        -2.4851     1.5010   542.0615 C.ar     174 DA      0.0000
    308 N3        -2.9959     2.7303   542.0033 N.ar     174 DA      0.0000
    309 C4        -2.0425     3.6610   542.1901 C.ar     174 DA      0.0000
    310 H5'       -3.4334     8.7616   539.4438 H        174 DA      0.0000
    311 H5''      -4.7975     9.5553   540.2832 H        174 DA      0.0000
    312 H4'       -5.2692     7.2000   540.1955 H        174 DA      0.0000
    313 H3'       -5.1143     8.4569   542.6958 H        174 DA      0.0000
    314 H2'       -3.0512     7.3648   543.2753 H        174 DA      0.0000
    315 H2''      -4.2639     6.2059   543.9207 H        174 DA      0.0000
    316 H1'       -4.3069     4.9586   541.8377 H        174 DA      0.0000
    317 H8        -0.8048     6.6329   542.4284 H        174 DA      0.0000
    318 H2        -3.1760     0.6829   541.9202 H        174 DA      0.0000
    319 H61        1.8275     2.3990   542.5914 H        174 DA      0.0000
    320 H62        1.3051     0.8246   542.5173 H        174 DA      0.0000
    321 P         -7.4052     7.0826   543.4880 P.3      175 DA      0.0000
    322 OP1       -8.6643     7.5777   542.8210 O.co2    175 DA      0.0000
    323 OP2       -6.6957     8.0766   544.3190 O.co2    175 DA      0.0000
    324 O5'       -7.7880     5.6276   544.0189 O.3      175 DA      0.0000
    325 C5'       -8.3555     4.6110   543.1946 C.3      175 DA      0.0000
    326 C4'       -7.8875     3.2640   543.7169 C.3      175 DA      0.0000
    327 O4'       -6.4902     3.1880   543.7450 O.3      175 DA      0.0000
    328 C3'       -8.3877     2.8312   545.0842 C.3      175 DA      0.0000
    329 O3'       -9.1967     1.6577   545.0064 O.3      175 DA      0.0000
    330 C2'       -7.1055     2.6853   545.9129 C.3      175 DA      0.0000
    331 C1'       -6.0377     2.4389   544.9191 C.3      175 DA      0.0000
    332 N9        -4.6545     2.8726   545.1872 N.ar     175 DA      0.0000
    333 C8        -4.1320     4.1380   545.3024 C.ar     175 DA      0.0000
    334 N7        -2.8314     4.1684   545.4716 N.ar     175 DA      0.0000
    335 C5        -2.4609     2.8279   545.4346 C.ar     175 DA      0.0000
    336 C6        -1.1926     2.1915   545.5551 C.ar     175 DA      0.0000
    337 N6        -0.0349     2.8114   545.7467 N.pl3    175 DA      0.0000
    338 N1        -1.2045     0.8226   545.4569 N.ar     175 DA      0.0000
    339 C2        -2.3766     0.1497   545.2678 C.ar     175 DA      0.0000
    340 N3        -3.5898     0.6794   545.1600 N.ar     175 DA      0.0000
    341 C4        -3.5622     2.0242   545.2519 C.ar     175 DA      0.0000
    342 H5'       -8.0242     4.7430   542.1645 H        175 DA      0.0000
    343 H5''      -9.4432     4.6652   543.2405 H        175 DA      0.0000
    344 H4'       -8.2295     2.5135   543.0042 H        175 DA      0.0000
    345 H3'       -8.9855     3.6384   545.5074 H        175 DA      0.0000
    346 H2'       -6.9048     3.5985   546.4732 H        175 DA      0.0000
    347 H2''      -7.1906     1.8374   546.5925 H        175 DA      0.0000
    348 H1'       -6.0286     1.3771   544.6731 H        175 DA      0.0000
    349 H8        -4.7391     5.0301   545.2575 H        175 DA      0.0000
    350 H2        -2.3108    -0.9261   545.1987 H        175 DA      0.0000
    351 H61        0.0178     3.7659   546.0729 H        175 DA      0.0000
    352 H62        0.8227     2.3117   545.5599 H        175 DA      0.0000
    353 P        -10.4682     1.3212   545.9626 P.3      176 DT      0.0000
    354 OP1      -11.6280     0.7353   545.1653 O.co2    176 DT      0.0000
    355 OP2      -10.8080     2.4646   546.7832 O.co2    176 DT      0.0000
    356 O5'       -9.9271    -0.0018   546.7763 O.3      176 DT      0.0000
    357 C5'       -9.1817    -0.8826   545.8312 C.3      176 DT      0.0000
    358 C4'       -7.9819    -1.3440   546.6189 C.3      176 DT      0.0000
    359 O4'       -7.0103    -0.3404   546.8109 O.3      176 DT      0.0000
    360 C3'       -8.3612    -1.8137   548.0355 C.3      176 DT      0.0000
    361 O3'       -8.4748    -3.2247   548.0372 O.3      176 DT      0.0000
    362 C2'       -7.2584    -1.2575   548.9327 C.3      176 DT      0.0000
    363 C1'       -6.2163    -0.8528   547.9681 C.3      176 DT      0.0000
    364 N1        -5.2572     0.1862   548.3079 N.am     176 DT      0.0000
    365 C2        -3.9291    -0.2053   548.4458 C.2      176 DT      0.0000
    366 O2        -3.6313    -1.3895   548.3578 O.2      176 DT      0.0000
    367 N3        -2.9975     0.7555   548.6998 N.am     176 DT      0.0000
    368 C4        -3.3157     2.0781   548.8200 C.2      176 DT      0.0000
    369 O4        -2.3901     2.9131   549.0751 O.2      176 DT      0.0000
    370 C5        -4.6868     2.4606   548.6484 C.2      176 DT      0.0000
    371 C7        -5.0875     3.9072   548.7359 C.3      176 DT      0.0000
    372 C6        -5.6014     1.5092   548.3926 C.2      176 DT      0.0000
    373 H5'       -9.7951    -1.7316   545.5295 H        176 DT      0.0000
    374 H5''      -8.8643    -0.3154   544.9562 H        176 DT      0.0000
    375 H4'       -7.5195    -2.1773   546.0898 H        176 DT      0.0000
    376 H3'       -9.3166    -1.3727   548.3198 H        176 DT      0.0000
    377 H2'       -7.6146    -0.4018   549.5062 H        176 DT      0.0000
    378 H2''      -6.8810    -2.0331   549.5992 H        176 DT      0.0000
    379 H1'       -5.6705    -1.7413   547.6508 H        176 DT      0.0000
    380 H3        -2.0318     0.4784   548.8035 H        176 DT      0.0000
    381 H6        -6.6331     1.7951   548.2505 H        176 DT      0.0000
    382 H71       -4.2087     4.5158   548.9489 H        176 DT      0.0000
    383 H72       -5.5252     4.2206   547.7881 H        176 DT      0.0000
    384 H73       -5.8193     4.0339   549.5337 H        176 DT      0.0000
    385 P         -9.0331    -4.1593   549.1438 P.3      177 DT      0.0000
    386 OP1       -9.4881    -5.5094   548.5317 O.co2    177 DT      0.0000
    387 OP2      -10.1639    -3.4302   549.7737 O.co2    177 DT      0.0000
    388 O5'       -7.7513    -4.5471   550.0261 O.3      177 DT      0.0000
    389 C5'       -6.8323    -5.4186   549.3143 C.3      177 DT      0.0000
    390 C4'       -5.5063    -5.3687   549.9905 C.3      177 DT      0.0000
    391 O4'       -4.8977    -4.0836   549.9672 O.3      177 DT      0.0000
    392 C3'       -5.5248    -5.8229   551.4571 C.3      177 DT      0.0000
    393 O3'       -4.4204    -6.6673   551.7212 O.3      177 DT      0.0000
    394 C2'       -5.3408    -4.4746   552.1935 C.3      177 DT      0.0000
    395 C1'       -4.2691    -3.8996   551.2899 C.3      177 DT      0.0000
    396 N1        -4.0308    -2.4993   551.5876 N.am     177 DT      0.0000
    397 C2        -2.7218    -2.0488   551.6424 C.2      177 DT      0.0000
    398 O2        -1.8066    -2.8516   551.4540 O.2      177 DT      0.0000
    399 N3        -2.5041    -0.7263   551.9083 N.am     177 DT      0.0000
    400 C4        -3.5250     0.1499   552.1154 C.2      177 DT      0.0000
    401 O4        -3.2473     1.3629   552.3387 O.2      177 DT      0.0000
    402 C5        -4.8678    -0.3239   552.0503 C.2      177 DT      0.0000
    403 C7        -6.0468     0.5808   552.2602 C.3      177 DT      0.0000
    404 C6        -5.0634    -1.6258   551.7891 C.2      177 DT      0.0000
    405 H5'       -7.2120    -6.4403   549.3268 H        177 DT      0.0000
    406 H5''      -6.7302    -5.0790   548.2836 H        177 DT      0.0000
    407 H4'       -4.8450    -6.0476   549.4520 H        177 DT      0.0000
    408 H3'       -6.4690    -6.3001   551.7196 H        177 DT      0.0000
    409 H2'       -6.2503    -3.8740   552.1922 H        177 DT      0.0000
    410 H2''      -4.9665    -4.6243   553.2062 H        177 DT      0.0000
    411 H1'       -3.3468    -4.4755   551.3655 H        177 DT      0.0000
    412 H3        -1.5537    -0.3874   551.9527 H        177 DT      0.0000
    413 H6        -6.0759    -1.9980   551.7361 H        177 DT      0.0000
    414 H71       -5.6972     1.5939   552.4591 H        177 DT      0.0000
    415 H72       -6.6686     0.5806   551.3649 H        177 DT      0.0000
    416 H73       -6.6314     0.2251   553.1086 H        177 DT      0.0000
    417 P         -4.2059    -8.0981   552.3291 P.3      178 DC      0.0000
    418 OP1       -3.8100    -9.0996   551.2612 O.co2    178 DC      0.0000
    419 OP2       -5.4479    -8.3997   553.0641 O.co2    178 DC      0.0000
    420 O5'       -2.8453    -7.7423   553.1551 O.3      178 DC      0.0000
    421 C5'       -1.9688    -7.1407   552.1329 C.3      178 DC      0.0000
    422 C4'       -0.7080    -6.7139   552.8294 C.3      178 DC      0.0000
    423 O4'       -0.6689    -5.3426   553.0763 O.3      178 DC      0.0000
    424 C3'       -0.3972    -7.4621   554.1208 C.3      178 DC      0.0000
    425 O3'        0.8846    -8.0715   554.0412 O.3      178 DC      0.0000
    426 C2'       -0.6158    -6.3694   555.1696 C.3      178 DC      0.0000
    427 C1'       -0.2879    -5.1084   554.4732 C.3      178 DC      0.0000
    428 N1        -1.0978    -3.9321   554.8053 N.am     178 DC      0.0000
    429 C2        -0.3909    -2.7591   555.0611 C.2      178 DC      0.0000
    430 O2         0.8438    -2.7409   555.0656 O.2      178 DC      0.0000
    431 N3        -1.1197    -1.6282   555.3349 N.2      178 DC      0.0000
    432 C4        -2.4836    -1.6402   555.3250 C.2      178 DC      0.0000
    433 N4        -3.0983    -0.4955   555.6019 N.pl3    178 DC      0.0000
    434 C5        -3.1868    -2.8330   555.0470 C.2      178 DC      0.0000
    435 C6        -2.4565    -3.9357   554.7822 C.2      178 DC      0.0000
    436 H5'       -1.7389    -7.8733   551.3592 H        178 DC      0.0000
    437 H5''      -2.4582    -6.2740   551.6887 H        178 DC      0.0000
    438 H4'        0.1116    -6.9280   552.1434 H        178 DC      0.0000
    439 H3'       -1.1468    -8.2403   554.2641 H        178 DC      0.0000
    440 H2'       -1.6521    -6.3633   555.5075 H        178 DC      0.0000
    441 H2''       0.0557    -6.5187   556.0151 H        178 DC      0.0000
    442 H1'        0.7757    -4.8841   554.5542 H        178 DC      0.0000
    443 H5        -4.2664    -2.8611   555.0464 H        178 DC      0.0000
    444 H6        -2.9704    -4.8551   554.5432 H        178 DC      0.0000
    445 H41       -2.5567     0.3333   555.8011 H        178 DC      0.0000
    446 H42       -4.1074    -0.4542   555.6132 H        178 DC      0.0000
    447 P          1.4447    -9.2603   554.9932 P.3      179 DA      0.0000
    448 OP1        2.5025   -10.0027   554.1995 O.co2    179 DA      0.0000
    449 OP2        0.3065   -10.1361   555.3387 O.co2    179 DA      0.0000
    450 O5'        2.0740    -8.4667   556.2902 O.3      179 DA      0.0000
    451 C5'        3.0373    -7.4093   555.9950 C.3      179 DA      0.0000
    452 C4'        3.4474    -6.7116   557.2503 C.3      179 DA      0.0000
    453 O4'        2.7924    -5.4628   557.4924 O.3      179 DA      0.0000
    454 C3'        3.1764    -7.4784   558.5555 C.3      179 DA      0.0000
    455 O3'        4.0023    -6.9304   559.5854 O.3      179 DA      0.0000
    456 C2'        1.6996    -7.0912   558.7701 C.3      179 DA      0.0000
    457 C1'        1.8866    -5.5813   558.5868 C.3      179 DA      0.0000
    458 N9         0.5833    -4.9456   558.4925 N.ar     179 DA      0.0000
    459 C8        -0.6662    -5.4888   558.3767 C.ar     179 DA      0.0000
    460 N7        -1.6555    -4.6137   558.3581 N.ar     179 DA      0.0000
    461 C5        -1.0012    -3.3946   558.4656 C.ar     179 DA      0.0000
    462 C6        -1.4784    -2.0611   558.5001 C.ar     179 DA      0.0000
    463 N6        -2.7513    -1.7186   558.4149 N.pl3    179 DA      0.0000
    464 N1        -0.5310    -1.0867   558.6327 N.ar     179 DA      0.0000
    465 C2         0.8005    -1.3968   558.7129 C.ar     179 DA      0.0000
    466 N3         1.3239    -2.6201   558.6830 N.ar     179 DA      0.0000
    467 C4         0.3692    -3.5747   558.5600 C.ar     179 DA      0.0000
    468 H5'        3.9173    -7.8470   555.5238 H        179 DA      0.0000
    469 H5''       2.5844    -6.6890   555.3137 H        179 DA      0.0000
    470 H4'        4.5189    -6.5208   557.1914 H        179 DA      0.0000
    471 H3'        3.3121    -8.5539   558.4418 H        179 DA      0.0000
    472 H2'        1.0395    -7.5255   558.0193 H        179 DA      0.0000
    473 H2''       1.3672    -7.3318   559.7800 H        179 DA      0.0000
    474 H1'        2.3839    -5.1951   559.4765 H        179 DA      0.0000
    475 H8        -0.8320    -6.5537   558.3057 H        179 DA      0.0000
    476 H2         1.4903    -0.5714   558.8093 H        179 DA      0.0000
    477 H61       -3.2644    -0.8675   558.5949 H        179 DA      0.0000
    478 H62       -3.3419    -2.4750   558.1001 H        179 DA      0.0000
    479 P          5.5427    -7.3404   559.7259 P.3      180 DC      0.0000
    480 OP1        6.1090    -7.9321   558.4808 O.co2    180 DC      0.0000
    481 OP2        5.5089    -8.3134   560.8688 O.co2    180 DC      0.0000
    482 O5'        6.2637    -5.9567   560.0091 O.3      180 DC      0.0000
    483 C5'        6.6108    -5.0472   558.9213 C.3      180 DC      0.0000
    484 C4'        6.5488    -3.6875   559.6263 C.3      180 DC      0.0000
    485 O4'        5.1980    -3.4372   559.9383 O.3      180 DC      0.0000
    486 C3'        7.3309    -3.6369   560.9362 C.3      180 DC      0.0000
    487 O3'        8.2432    -2.5177   561.0041 O.3      180 DC      0.0000
    488 C2'        6.2413    -3.5990   562.0184 C.3      180 DC      0.0000
    489 C1'        5.1439    -2.8822   561.3422 C.3      180 DC      0.0000
    490 N1         3.7465    -3.1197   561.6951 N.am     180 DC      0.0000
    491 C2         2.9291    -1.9913   561.6682 C.2      180 DC      0.0000
    492 O2         3.3629    -0.8650   561.4613 O.2      180 DC      0.0000
    493 N3         1.6051    -2.1727   561.9213 N.2      180 DC      0.0000
    494 C4         1.0697    -3.3954   562.1547 C.2      180 DC      0.0000
    495 N4        -0.2409    -3.4455   562.3856 N.pl3    180 DC      0.0000
    496 C5         1.9121    -4.5411   562.1612 C.2      180 DC      0.0000
    497 C6         3.2174    -4.3543   561.9118 C.2      180 DC      0.0000
    498 H5'        7.6102    -5.2505   558.5365 H        180 DC      0.0000
    499 H5''       5.8714    -5.1015   558.1223 H        180 DC      0.0000
    500 H4'        6.9160    -2.9124   558.9536 H        180 DC      0.0000
    501 H3'        7.8995    -4.5608   561.0421 H        180 DC      0.0000
    502 H2'        5.9363    -4.6053   562.3054 H        180 DC      0.0000
    503 H2''       6.5851    -3.0400   562.8887 H        180 DC      0.0000
    504 H1'        5.3491    -1.8118   561.3290 H        180 DC      0.0000
    505 H5         1.5156    -5.5259   562.3597 H        180 DC      0.0000
    506 H6         3.8706    -5.2139   561.8821 H        180 DC      0.0000
    507 H41       -0.7884    -2.5968   562.3745 H        180 DC      0.0000
    508 H42       -0.6873    -4.3322   562.5717 H        180 DC      0.0000
    509 P         -7.6178     3.7436   563.9636 P.3      180 DG      0.0000
    510 OP1       -8.9787     4.3378   564.1424 O.co2    180 DG      0.0000
    511 OP2       -7.5711     2.6757   562.8788 O.co2    180 DG      0.0000
    512 O5'       -6.5182     4.9508   563.7564 O.3      180 DG      0.0000
    513 C5'       -5.5999     5.2762   564.8522 C.3      180 DG      0.0000
    514 C4'       -4.2508     5.6064   564.2179 C.3      180 DG      0.0000
    515 O4'       -3.4253     4.4779   564.1221 O.3      180 DG      0.0000
    516 C3'       -4.3406     6.1930   562.8115 C.3      180 DG      0.0000
    517 O3'       -3.3926     7.2522   562.5445 O.3      180 DG      0.0000
    518 C2'       -4.0901     4.9712   561.9093 C.3      180 DG      0.0000
    519 C1'       -3.0604     4.2159   562.7331 C.3      180 DG      0.0000
    520 N9        -3.1199     2.7698   562.4598 N.ar     180 DG      0.0000
    521 C8        -4.2373     1.9846   562.3031 C.ar     180 DG      0.0000
    522 N7        -3.9737     0.7236   562.0847 N.ar     180 DG      0.0000
    523 C5        -2.5852     0.6683   562.1095 C.ar     180 DG      0.0000
    524 C6        -1.6872    -0.4211   561.9530 C.2      180 DG      0.0000
    525 O6        -1.9893    -1.6068   561.7562 O.2      180 DG      0.0000
    526 N1        -0.3607    -0.0771   562.0399 N.am     180 DG      0.0000
    527 C2         0.0527     1.1949   562.2606 C.2      180 DG      0.0000
    528 N2         1.3689     1.3767   562.3240 N.pl3    180 DG      0.0000
    529 N3        -0.7496     2.2548   562.4183 N.2      180 DG      0.0000
    530 C4        -2.0510     1.9166   562.3350 C.ar     180 DG      0.0000
    531 H5'       -5.9720     6.1356   565.4099 H        180 DG      0.0000
    532 H5''      -5.4972     4.4187   565.5171 H        180 DG      0.0000
    533 H4'       -3.7500     6.3357   564.8546 H        180 DG      0.0000
    534 H3'       -5.3512     6.5641   562.6411 H        180 DG      0.0000
    535 H2'       -4.9979     4.3851   561.7666 H        180 DG      0.0000
    536 H2''      -3.6711     5.2767   560.9505 H        180 DG      0.0000
    537 H1'       -2.0602     4.5974   562.5278 H        180 DG      0.0000
    538 H8        -5.2429     2.3749   562.3558 H        180 DG      0.0000
    539 H1         0.3353    -0.8013   561.9351 H        180 DG      0.0000
    540 H21        1.9933     0.5913   562.2089 H        180 DG      0.0000
    541 H22        1.7438     2.3003   562.4871 H        180 DG      0.0000
    542 P         -2.9143     7.3871   561.0211 P.3      179 DT      0.0000
    543 OP1       -2.5213     8.7863   560.6302 O.co2    179 DT      0.0000
    544 OP2       -4.1506     6.9605   560.3205 O.co2    179 DT      0.0000
    545 O5'       -1.6547     6.4054   560.8902 O.3      179 DT      0.0000
    546 C5'       -0.3374     6.9840   561.1578 C.3      179 DT      0.0000
    547 C4'        0.6996     6.1831   560.4007 C.3      179 DT      0.0000
    548 O4'        0.4138     4.7960   560.3735 O.3      179 DT      0.0000
    549 C3'        0.8341     6.6059   558.9460 C.3      179 DT      0.0000
    550 O3'        2.1906     6.5867   558.4509 O.3      179 DT      0.0000
    551 C2'       -0.0437     5.6084   558.2232 C.3      179 DT      0.0000
    552 C1'        0.3150     4.3532   559.0013 C.3      179 DT      0.0000
    553 N1        -0.8153     3.4235   558.8500 N.am     179 DT      0.0000
    554 C2        -0.5156     2.0692   558.9568 C.2      179 DT      0.0000
    555 O2         0.6388     1.7011   559.1465 O.2      179 DT      0.0000
    556 N3        -1.5543     1.1888   558.8366 N.am     179 DT      0.0000
    557 C4        -2.8327     1.6074   558.6190 C.2      179 DT      0.0000
    558 O4        -3.7352     0.7115   558.5215 O.2      179 DT      0.0000
    559 C5        -3.1085     3.0005   558.5126 C.2      179 DT      0.0000
    560 C7        -4.5154     3.4737   558.2837 C.3      179 DT      0.0000
    561 C6        -2.0902     3.8560   558.6344 C.2      179 DT      0.0000
    562 H5'       -0.3165     8.0215   560.8241 H        179 DT      0.0000
    563 H5''      -0.1272     6.9385   562.2264 H        179 DT      0.0000
    564 H4'        1.6640     6.3241   560.8887 H        179 DT      0.0000
    565 H3'        0.4197     7.6064   558.8220 H        179 DT      0.0000
    566 H2'       -1.1013     5.8557   558.3147 H        179 DT      0.0000
    567 H2''       0.2477     5.5168   557.1768 H        179 DT      0.0000
    568 H1'        1.2489     3.9139   558.6506 H        179 DT      0.0000
    569 H3        -1.3688     0.1988   558.9113 H        179 DT      0.0000
    570 H6        -2.2813     4.9163   558.5603 H        179 DT      0.0000
    571 H71       -5.1818     2.6139   558.2150 H        179 DT      0.0000
    572 H72       -4.8250     4.1076   559.1146 H        179 DT      0.0000
    573 H73       -4.5606     4.0436   557.3555 H        179 DT      0.0000
    574 P          2.4469     8.0299   557.6725 P.3      178 DG      0.0000
    575 OP1        3.0688     9.0723   558.5438 O.co2    178 DG      0.0000
    576 OP2        1.0472     8.3116   557.2670 O.co2    178 DG      0.0000
    577 O5'        3.5382     7.5876   556.5917 O.3      178 DG      0.0000
    578 C5'        4.9154     7.4238   557.0152 C.3      178 DG      0.0000
    579 C4'        5.2958     6.0181   556.5675 C.3      178 DG      0.0000
    580 O4'        4.2309     5.1288   556.8382 O.3      178 DG      0.0000
    581 C3'        5.6263     5.8981   555.0797 C.3      178 DG      0.0000
    582 O3'        6.9172     5.3539   554.8712 O.3      178 DG      0.0000
    583 C2'        4.4759     5.0923   554.5030 C.3      178 DG      0.0000
    584 C1'        4.0083     4.2824   555.6892 C.3      178 DG      0.0000
    585 N9         2.5876     3.9452   555.5656 N.ar     178 DG      0.0000
    586 C8         1.5260     4.7904   555.4067 C.ar     178 DG      0.0000
    587 N7         0.3703     4.1769   555.3287 N.ar     178 DG      0.0000
    588 C5         0.6925     2.8299   555.4662 C.ar     178 DG      0.0000
    589 C6        -0.1118     1.6598   555.4757 C.2      178 DG      0.0000
    590 O6        -1.3331     1.5998   555.3766 O.2      178 DG      0.0000
    591 N1         0.5834     0.4935   555.6246 N.am     178 DG      0.0000
    592 C2         1.9507     0.4703   555.7575 C.2      178 DG      0.0000
    593 N2         2.5022    -0.7360   555.8932 N.pl3    178 DG      0.0000
    594 N3         2.7643     1.5311   555.7618 N.2      178 DG      0.0000
    595 C4         2.0613     2.6794   555.6111 C.ar     178 DG      0.0000
    596 H5'        5.5550     8.1653   556.5365 H        178 DG      0.0000
    597 H5''       4.9887     7.5067   558.0995 H        178 DG      0.0000
    598 H4'        6.1660     5.6979   557.1405 H        178 DG      0.0000
    599 H3'        5.5999     6.8956   554.6412 H        178 DG      0.0000
    600 H2'        3.6839     5.7453   554.1367 H        178 DG      0.0000
    601 H2''       4.8294     4.4363   553.7075 H        178 DG      0.0000
    602 H1'        4.6014     3.3720   555.7762 H        178 DG      0.0000
    603 H8         1.6294     5.8639   555.3506 H        178 DG      0.0000
    604 H1         0.0761    -0.3797   555.6375 H        178 DG      0.0000
    605 H21        1.9191    -1.5607   555.8941 H        178 DG      0.0000
    606 H22        3.5031    -0.8251   555.9950 H        178 DG      0.0000
    607 P          7.5060     4.1707   554.0049 P.3      177 DA      0.0000
    608 OP1        8.6057     3.4406   554.7863 O.co2    177 DA      0.0000
    609 OP2        8.0650     4.8111   552.8122 O.co2    177 DA      0.0000
    610 O5'        6.2990     3.0905   553.8301 O.3      177 DA      0.0000
    611 C5'        6.2164     2.1756   554.9866 C.3      177 DA      0.0000
    612 C4'        6.4898     0.7889   554.4588 C.3      177 DA      0.0000
    613 O4'        5.3116     0.0563   554.2365 O.3      177 DA      0.0000
    614 C3'        7.2235     0.7956   553.1183 C.3      177 DA      0.0000
    615 O3'        8.2211    -0.1945   553.0431 O.3      177 DA      0.0000
    616 C2'        6.0805     0.7232   552.1217 C.3      177 DA      0.0000
    617 C1'        4.9237     0.0929   552.8456 C.3      177 DA      0.0000
    618 N9         3.6716     0.8351   552.6200 N.ar     177 DA      0.0000
    619 C8         3.4883     2.1882   552.4337 C.ar     177 DA      0.0000
    620 N7         2.2394     2.5436   552.2378 N.ar     177 DA      0.0000
    621 C5         1.5493     1.3410   552.3247 C.ar     177 DA      0.0000
    622 C6         0.1705     1.0437   552.2190 C.ar     177 DA      0.0000
    623 N6        -0.7639     1.9536   552.0065 N.pl3    177 DA      0.0000
    624 N1        -0.1701    -0.2689   552.3427 N.ar     177 DA      0.0000
    625 C2         0.7738    -1.2302   552.5672 C.ar     177 DA      0.0000
    626 N3         2.0830    -1.0174   552.6831 N.ar     177 DA      0.0000
    627 C4         2.4092     0.2907   552.5470 C.ar     177 DA      0.0000
    628 H5'        6.9613     2.4469   555.7346 H        177 DA      0.0000
    629 H5''       5.2186     2.2172   555.4233 H        177 DA      0.0000
    630 H4'        7.1000     0.2538   555.1865 H        177 DA      0.0000
    631 H3'        7.7058     1.7666   553.0052 H        177 DA      0.0000
    632 H2'        6.3661     0.1132   551.2648 H        177 DA      0.0000
    633 H2''       5.8109     1.7263   551.7912 H        177 DA      0.0000
    634 H1'        4.7977    -0.9288   552.4874 H        177 DA      0.0000
    635 H8         4.3033     2.8968   552.4476 H        177 DA      0.0000
    636 H2         0.4288    -2.2495   552.6585 H        177 DA      0.0000
    637 H61       -1.7129     1.8115   552.3220 H        177 DA      0.0000
    638 H62       -0.5250     2.8060   551.5203 H        177 DA      0.0000
    639 P          8.6704    -1.1388   551.8585 P.3      176 DA      0.0000
    640 OP1        9.6372    -2.2425   552.3784 O.co2    176 DA      0.0000
    641 OP2        9.4169    -0.2391   550.9248 O.co2    176 DA      0.0000
    642 O5'        7.3891    -1.9054   551.3558 O.3      176 DA      0.0000
    643 C5'        7.1280    -3.2490   551.8116 C.3      176 DA      0.0000
    644 C4'        5.8720    -3.7173   551.1097 C.3      176 DA      0.0000
    645 O4'        4.8807    -2.7374   550.9890 O.3      176 DA      0.0000
    646 C3'        6.1253    -4.2555   549.7022 C.3      176 DA      0.0000
    647 O3'        5.8418    -5.6671   549.6707 O.3      176 DA      0.0000
    648 C2'        5.3053    -3.3289   548.8026 C.3      176 DA      0.0000
    649 C1'        4.1950    -2.8736   549.7004 C.3      176 DA      0.0000
    650 N9         3.6079    -1.5718   549.4008 N.ar     176 DA      0.0000
    651 C8         4.2314    -0.3567   549.2061 C.ar     176 DA      0.0000
    652 N7         3.3991     0.6396   549.0006 N.ar     176 DA      0.0000
    653 C5         2.1492     0.0564   549.0752 C.ar     176 DA      0.0000
    654 C6         0.8486     0.5922   548.9417 C.ar     176 DA      0.0000
    655 N6         0.5976     1.8750   548.6985 N.pl3    176 DA      0.0000
    656 N1        -0.1733    -0.3108   549.0905 N.ar     176 DA      0.0000
    657 C2         0.0501    -1.6149   549.3430 C.ar     176 DA      0.0000
    658 N3         1.2482    -2.1907   549.4819 N.ar     176 DA      0.0000
    659 C4         2.2529    -1.2985   549.3347 C.ar     176 DA      0.0000
    660 H5'        7.9642    -3.8999   551.5565 H        176 DA      0.0000
    661 H5''       6.9725    -3.2509   552.8905 H        176 DA      0.0000
    662 H4'        5.4538    -4.5327   551.6998 H        176 DA      0.0000
    663 H3'        7.1801    -4.1138   549.4672 H        176 DA      0.0000
    664 H2'        5.9042    -2.4839   548.4627 H        176 DA      0.0000
    665 H2''       4.9056    -3.8798   547.9513 H        176 DA      0.0000
    666 H1'        3.4184    -3.6361   549.7615 H        176 DA      0.0000
    667 H8         5.3045    -0.2352   549.2210 H        176 DA      0.0000
    668 H2        -0.8162    -2.2521   549.4421 H        176 DA      0.0000
    669 H61       -0.3124     2.2000   548.9925 H        176 DA      0.0000
    670 H62        1.2697     2.4819   548.2512 H        176 DA      0.0000
    671 P          6.0216    -6.4680   548.2858 P.3      175 DT      0.0000
    672 OP1        6.0326    -7.9646   548.3439 O.co2    175 DT      0.0000
    673 OP2        7.2764    -5.8374   547.7731 O.co2    175 DT      0.0000
    674 O5'        4.5729    -6.0386   547.5826 O.3      175 DT      0.0000
    675 C5'        3.5227    -6.0930   548.5949 C.3      175 DT      0.0000
    676 C4'        2.2018    -6.2506   547.9120 C.3      175 DT      0.0000
    677 O4'        1.5194    -5.0458   547.7316 O.3      175 DT      0.0000
    678 C3'        2.2814    -6.9242   546.5507 C.3      175 DT      0.0000
    679 O3'        1.1696    -7.7876   546.2835 O.3      175 DT      0.0000
    680 C2'        2.3708    -5.6800   545.6574 C.3      175 DT      0.0000
    681 C1'        1.3452    -4.7690   546.2974 C.3      175 DT      0.0000
    682 N1         1.6731    -3.3493   546.0675 N.am     175 DT      0.0000
    683 C2         0.6187    -2.4614   545.9458 C.2      175 DT      0.0000
    684 O2        -0.5496    -2.8510   545.9826 O.2      175 DT      0.0000
    685 N3         0.9121    -1.1353   545.7784 N.am     175 DT      0.0000
    686 C4         2.1937    -0.6827   545.7299 C.2      175 DT      0.0000
    687 O4         2.3725     0.5580   545.5444 O.2      175 DT      0.0000
    688 C5         3.2632    -1.6096   545.8783 C.2      175 DT      0.0000
    689 C7         4.6988    -1.1435   545.8262 C.3      175 DT      0.0000
    690 C6         2.9601    -2.9004   546.0513 C.2      175 DT      0.0000
    691 H5'        3.6960    -6.9414   549.2570 H        175 DT      0.0000
    692 H5''       3.5262    -5.1701   549.1750 H        175 DT      0.0000
    693 H4'        1.5817    -6.8812   548.5490 H        175 DT      0.0000
    694 H3'        3.2092    -7.4917   546.4787 H        175 DT      0.0000
    695 H2'        3.3674    -5.2396   545.6880 H        175 DT      0.0000
    696 H2''       2.0869    -5.9201   544.6328 H        175 DT      0.0000
    697 H1'        0.3350    -5.0060   545.9635 H        175 DT      0.0000
    698 H3         0.1547    -0.4732   545.6883 H        175 DT      0.0000
    699 H6         3.7622    -3.6115   546.1827 H        175 DT      0.0000
    700 H71        5.0932    -1.2920   544.8210 H        175 DT      0.0000
    701 H72        5.2928    -1.7171   546.5378 H        175 DT      0.0000
    702 H73        4.7467    -0.0852   546.0827 H        175 DT      0.0000
    703 P          1.1394    -8.4612   544.7935 P.3      174 DT      0.0000
    704 OP1        1.3244    -9.9726   544.9415 O.co2    174 DT      0.0000
    705 OP2        2.3455    -7.8676   544.1237 O.co2    174 DT      0.0000
    706 O5'       -0.2189    -8.0975   544.1415 O.3      174 DT      0.0000
    707 C5'       -1.4134    -7.8812   544.8929 C.3      174 DT      0.0000
    708 C4'       -2.2679    -6.9087   544.1449 C.3      174 DT      0.0000
    709 O4'       -1.8617    -5.5680   544.0879 O.3      174 DT      0.0000
    710 C3'       -2.6154    -7.2465   542.6789 C.3      174 DT      0.0000
    711 O3'       -3.9420    -6.7206   542.5751 O.3      174 DT      0.0000
    712 C2'       -1.5953    -6.3917   541.9151 C.3      174 DT      0.0000
    713 C1'       -1.8099    -5.1082   542.6908 C.3      174 DT      0.0000
    714 N1        -0.7415    -4.1104   542.5847 N.am     174 DT      0.0000
    715 C2        -1.1650    -2.7746   542.5840 C.2      174 DT      0.0000
    716 O2        -2.3630    -2.4870   542.6271 O.2      174 DT      0.0000
    717 N3        -0.1948    -1.8156   542.5306 N.am     174 DT      0.0000
    718 C4         1.1343    -2.1130   542.4708 C.2      174 DT      0.0000
    719 O4         1.9576    -1.1509   542.4084 O.2      174 DT      0.0000
    720 C5         1.5363    -3.4765   542.4791 C.2      174 DT      0.0000
    721 C7         3.0097    -3.8214   542.4177 C.3      174 DT      0.0000
    722 C6         0.5838    -4.4113   542.5456 C.2      174 DT      0.0000
    723 H5'       -1.9478    -8.8233   545.0151 H        174 DT      0.0000
    724 H5''      -1.1623    -7.4720   545.8715 H        174 DT      0.0000
    725 H4'       -3.2218    -6.8985   544.6722 H        174 DT      0.0000
    726 H3'       -2.5498    -8.3102   542.4501 H        174 DT      0.0000
    727 H2'       -1.8464    -6.2874   540.8595 H        174 DT      0.0000
    728 H2''      -0.5819    -6.7706   542.0467 H        174 DT      0.0000
    729 H1'       -2.7641    -4.6611   542.4118 H        174 DT      0.0000
    730 H3        -0.4734    -0.8449   542.5355 H        174 DT      0.0000
    731 H6         0.8792    -5.4498   542.5693 H        174 DT      0.0000
    732 H71        3.5964    -2.9040   542.3688 H        174 DT      0.0000
    733 H72        3.2047    -4.4247   541.5311 H        174 DT      0.0000
    734 H73        3.2886    -4.3840   543.3086 H        174 DT      0.0000
    735 P         -4.9577    -6.9757   541.4289 P.3      173 DC      0.0000
    736 OP1       -6.3058    -7.3652   542.0380 O.co2    173 DC      0.0000
    737 OP2       -4.4079    -8.1272   540.6470 O.co2    173 DC      0.0000
    738 O5'       -4.9679    -5.5240   540.6895 O.3      173 DC      0.0000
    739 C5'       -5.6785    -4.4670   541.4140 C.3      173 DC      0.0000
    740 C4'       -6.2996    -3.5834   540.3634 C.3      173 DC      0.0000
    741 O4'       -5.5338    -2.4269   540.1182 O.3      173 DC      0.0000
    742 C3'       -6.5107    -4.2418   538.9990 C.3      173 DC      0.0000
    743 O3'       -7.6651    -3.7869   538.2897 O.3      173 DC      0.0000
    744 C2'       -5.1788    -3.9083   538.3129 C.3      173 DC      0.0000
    745 C1'       -4.8666    -2.5166   538.8595 C.3      173 DC      0.0000
    746 N1        -3.3947    -2.3921   538.9773 N.am     173 DC      0.0000
    747 C2        -2.8673    -1.1016   538.9945 C.2      173 DC      0.0000
    748 O2        -3.6036    -0.1079   538.9259 O.2      173 DC      0.0000
    749 N3        -1.5077    -0.9819   539.0978 N.2      173 DC      0.0000
    750 C4        -0.6905    -2.0651   539.1685 C.2      173 DC      0.0000
    751 N4         0.6297    -1.8968   539.2704 N.pl3    173 DC      0.0000
    752 C5        -1.2547    -3.3711   539.1434 C.2      173 DC      0.0000
    753 C6        -2.5904    -3.4878   539.0498 C.2      173 DC      0.0000
    754 H5'       -6.4514    -4.8986   542.0499 H        173 DC      0.0000
    755 H5''      -4.9766    -3.8918   542.0179 H        173 DC      0.0000
    756 H4'       -7.2743    -3.2641   540.7322 H        173 DC      0.0000
    757 H3'       -6.5797    -5.3212   539.1332 H        173 DC      0.0000
    758 H2'       -5.2878    -3.8905   537.2285 H        173 DC      0.0000
    759 H2''      -4.4067    -4.6185   538.6089 H        173 DC      0.0000
    760 H1'       -5.2507    -1.7557   538.1801 H        173 DC      0.0000
    761 H5        -0.6252    -4.2470   539.1982 H        173 DC      0.0000
    762 H6        -3.0350    -4.4719   539.0317 H        173 DC      0.0000
    763 H41        1.0200    -0.9655   539.2911 H        173 DC      0.0000
    764 H42        1.2384    -2.7008   539.3268 H        173 DC      0.0000
    765 P         -7.7766    -3.5813   536.6577 P.3      172 DA      0.0000
    766 OP1       -9.2371    -3.6562   536.2683 O.co2    172 DA      0.0000
    767 OP2       -6.9220    -4.6581   536.0877 O.co2    172 DA      0.0000
    768 O5'       -7.2946    -2.0684   536.4922 O.3      172 DA      0.0000
    769 C5'       -8.2048    -0.9976   536.9576 C.3      172 DA      0.0000
    770 C4'       -7.7845     0.1693   536.0804 C.3      172 DA      0.0000
    771 O4'       -6.4178     0.5084   536.3477 O.3      172 DA      0.0000
    772 C3'       -7.8169    -0.1539   534.5760 C.3      172 DA      0.0000
    773 O3'       -7.7918     1.0248   533.7869 O.3      172 DA      0.0000
    774 C2'       -6.4306    -0.7973   534.3885 C.3      172 DA      0.0000
    775 C1'       -5.6625     0.3221   535.1431 C.3      172 DA      0.0000
    776 N9        -4.3073    -0.1994   535.2886 N.ar     172 DA      0.0000
    777 C8        -3.9438    -1.5255   535.3614 C.ar     172 DA      0.0000
    778 N7        -2.6518    -1.7047   535.4761 N.ar     172 DA      0.0000
    779 C5        -2.1359    -0.3963   535.4697 C.ar     172 DA      0.0000
    780 C6        -0.7994     0.0790   535.5696 C.ar     172 DA      0.0000
    781 N6         0.2657    -0.7184   535.6925 N.pl3    172 DA      0.0000
    782 N1        -0.6804     1.4357   535.5345 N.ar     172 DA      0.0000
    783 C2        -1.7611     2.2453   535.4156 C.ar     172 DA      0.0000
    784 N3        -3.0396     1.8679   535.3241 N.ar     172 DA      0.0000
    785 C4        -3.1445     0.5278   535.3516 C.ar     172 DA      0.0000
    786 H5'       -9.2486    -1.2636   536.7909 H        172 DA      0.0000
    787 H5''      -8.0281    -0.7720   538.0093 H        172 DA      0.0000
    788 H4'       -8.4222     1.0295   536.2843 H        172 DA      0.0000
    789 H3'       -8.6328    -0.8245   534.3063 H        172 DA      0.0000
    790 H2'       -6.3448    -1.7713   534.8701 H        172 DA      0.0000
    791 H2''      -6.1465    -0.8419   533.3371 H        172 DA      0.0000
    792 H1'       -5.6546     1.2395   534.5547 H        172 DA      0.0000
    793 H8        -4.6546    -2.3380   535.3274 H        172 DA      0.0000
    794 H2        -1.5683     3.3077   535.3924 H        172 DA      0.0000
    795 H61        0.1458    -1.7209   535.7172 H        172 DA      0.0000
    796 H62        1.1906    -0.3185   535.7606 H        172 DA      0.0000
    797 P         -8.8707     1.2612   532.6460 P.3      171 DC      0.0000
    798 OP1      -10.0434     1.8316   533.4263 O.co2    171 DC      0.0000
    799 OP2       -9.2060     0.0308   531.9204 O.co2    171 DC      0.0000
    800 O5'       -8.0558     2.3043   531.6701 O.3      171 DC      0.0000
    801 C5'       -7.4913     3.4961   532.3391 C.3      171 DC      0.0000
    802 C4'       -6.1704     3.8249   531.6951 C.3      171 DC      0.0000
    803 O4'       -5.0543     3.2154   532.3322 O.3      171 DC      0.0000
    804 C3'       -6.1036     3.4032   530.2173 C.3      171 DC      0.0000
    805 O3'       -5.3151     4.2649   529.4060 O.3      171 DC      0.0000
    806 C2'       -5.3610     2.0368   530.3829 C.3      171 DC      0.0000
    807 C1'       -4.2332     2.6697   531.2785 C.3      171 DC      0.0000
    808 N1        -3.2570     1.6389   531.5164 N.am     171 DC      0.0000
    809 C2        -1.9621     2.0161   531.8336 C.2      171 DC      0.0000
    810 O2        -1.4806     3.1459   531.9740 O.2      171 DC      0.0000
    811 N3        -1.0368     1.0291   532.0318 N.2      171 DC      0.0000
    812 C4        -1.3548    -0.2961   531.9158 C.2      171 DC      0.0000
    813 N4        -0.4153    -1.2300   532.1319 N.pl3    171 DC      0.0000
    814 C5        -2.6875    -0.6677   531.5862 C.2      171 DC      0.0000
    815 C6        -3.5745     0.3157   531.3945 C.2      171 DC      0.0000
    816 H5'       -8.1743     4.3383   532.2277 H        171 DC      0.0000
    817 H5''      -7.3402     3.2847   533.3977 H        171 DC      0.0000
    818 H4'       -6.0343     4.9053   531.7418 H        171 DC      0.0000
    819 H3'       -7.1003     3.2653   529.7983 H        171 DC      0.0000
    820 H2'       -5.9528     1.2815   530.9000 H        171 DC      0.0000
    821 H2''      -4.9694     1.6685   529.4347 H        171 DC      0.0000
    822 H1'       -3.7622     3.4879   530.7336 H        171 DC      0.0000
    823 H5        -2.9731    -1.7052   531.4940 H        171 DC      0.0000
    824 H6        -4.5880     0.0513   531.1312 H        171 DC      0.0000
    825 H41        0.5258    -0.9534   532.3724 H        171 DC      0.0000
    826 H42       -0.6495    -2.2094   532.0539 H        171 DC      0.0000
    827 P          9.9743    -0.9463   566.0052 P.3      181 DG      0.0000
    828 OP1       11.2071    -1.7720   566.0036 O.co2    181 DG      0.0000
    829 OP2        9.0372    -1.5511   567.0608 O.co2    181 DG      0.0000
    830 O5'       10.1610     0.6237   566.1835 O.3      181 DG      0.0000
    831 C5'       10.1140     1.6635   565.1835 C.3      181 DG      0.0000
    832 C4'        9.1910     2.7558   565.6824 C.3      181 DG      0.0000
    833 O4'        7.8583     2.5569   565.2632 O.3      181 DG      0.0000
    834 C3'        9.1412     3.0148   567.1745 C.3      181 DG      0.0000
    835 O3'        9.4065     4.4090   567.4865 O.3      181 DG      0.0000
    836 C2'        7.7576     2.5580   567.5964 C.3      181 DG      0.0000
    837 C1'        6.9345     2.7152   566.3408 C.3      181 DG      0.0000
    838 N9         5.8595     1.7069   566.3117 N.ar     181 DG      0.0000
    839 C8         5.9274     0.3529   566.5406 C.ar     181 DG      0.0000
    840 N7         4.7714    -0.2651   566.4509 N.ar     181 DG      0.0000
    841 C5         3.8755     0.7527   566.1339 C.ar     181 DG      0.0000
    842 C6         2.4769     0.7425   565.9080 C.2      181 DG      0.0000
    843 O6         1.7082    -0.2192   565.9292 O.2      181 DG      0.0000
    844 N1         1.9236     1.9616   565.6265 N.am     181 DG      0.0000
    845 C2         2.6156     3.0541   565.5658 C.2      181 DG      0.0000
    846 N2         1.8642     4.0422   565.2690 N.pl3    181 DG      0.0000
    847 N3         3.9940     3.1663   565.7746 N.2      181 DG      0.0000
    848 C4         4.5292     1.9676   566.0471 C.ar     181 DG      0.0000
    849 H5'       11.1134     2.0686   565.0248 H        181 DG      0.0000
    850 H5''       9.7297     1.2566   564.2482 H        181 DG      0.0000
    851 H4'        9.5275     3.6825   565.2176 H        181 DG      0.0000
    852 H3'        9.8870     2.3920   567.6685 H        181 DG      0.0000
    853 H2'        7.7739     1.5184   567.9234 H        181 DG      0.0000
    854 H2''       7.3702     3.1996   568.3879 H        181 DG      0.0000
    855 H1'        6.5011     3.7149   566.3088 H        181 DG      0.0000
    856 H8         6.8500    -0.1579   566.7737 H        181 DG      0.0000
    857 H1         0.9290     2.0116   565.4581 H        181 DG      0.0000
    858 H21        0.8749     3.8988   565.1247 H        181 DG      0.0000
    859 H22        2.2588     4.9675   565.1786 H        181 DG      0.0000
    860 P          9.1443     5.0280   568.9151 P.3      182 DT      0.0000
    861 OP1       10.1840     5.9911   569.4267 O.co2    182 DT      0.0000
    862 OP2        9.2644     3.7984   569.8338 O.co2    182 DT      0.0000
    863 O5'        7.6826     5.5431   568.9437 O.3      182 DT      0.0000
    864 C5'        7.3320     6.9469   568.7997 C.3      182 DT      0.0000
    865 C4'        5.8189     6.9703   568.8572 C.3      182 DT      0.0000
    866 O4'        5.2554     5.7066   568.5820 O.3      182 DT      0.0000
    867 C3'        5.2040     7.3852   570.1699 C.3      182 DT      0.0000
    868 O3'        4.5025     8.6230   569.9817 O.3      182 DT      0.0000
    869 C2'        4.2533     6.2545   570.5621 C.3      182 DT      0.0000
    870 C1'        3.9405     5.6696   569.2094 C.3      182 DT      0.0000
    871 N1         3.5421     4.2652   569.3060 N.am     182 DT      0.0000
    872 C2         2.2205     3.9699   569.1081 C.2      182 DT      0.0000
    873 O2         1.3797     4.8340   568.8699 O.2      182 DT      0.0000
    874 N3         1.8571     2.6526   569.1892 N.am     182 DT      0.0000
    875 C4         2.7401     1.6609   569.4451 C.2      182 DT      0.0000
    876 O4         2.2578     0.4991   569.4903 O.2      182 DT      0.0000
    877 C5         4.1196     1.9888   569.6448 C.2      182 DT      0.0000
    878 C7         5.1280     0.9224   569.9247 C.3      182 DT      0.0000
    879 C6         4.4660     3.2798   569.5633 C.2      182 DT      0.0000
    880 H5'        7.7571     7.5350   569.6131 H        182 DT      0.0000
    881 H5''       7.6792     7.3260   567.8385 H        182 DT      0.0000
    882 H4'        5.4684     7.6636   568.0926 H        182 DT      0.0000
    883 H3'        5.9792     7.5040   570.9270 H        182 DT      0.0000
    884 H2'        4.7411     5.5269   571.2109 H        182 DT      0.0000
    885 H2''       3.3526     6.6503   571.0314 H        182 DT      0.0000
    886 H1'        3.2094     6.2664   568.6641 H        182 DT      0.0000
    887 H3         0.8862     2.4106   569.0517 H        182 DT      0.0000
    888 H6         5.5010     3.5550   569.7036 H        182 DT      0.0000
    889 H71        5.6976     0.7136   569.0191 H        182 DT      0.0000
    890 H72        4.6172     0.0160   570.2494 H        182 DT      0.0000
    891 H73        5.8047     1.2593   570.7100 H        182 DT      0.0000
    892 P          4.6167     9.6204   571.2616 P.3      183 DG      0.0000
    893 OP1        4.6918    10.9634   570.5466 O.co2    183 DG      0.0000
    894 OP2        5.8114     9.2841   572.0152 O.co2    183 DG      0.0000
    895 O5'        3.1429     9.2729   571.8712 O.3      183 DG      0.0000
    896 C5'        2.1460     9.2900   570.7806 C.3      183 DG      0.0000
    897 C4'        0.8921     8.6510   571.3006 C.3      183 DG      0.0000
    898 O4'        0.7739     7.2651   571.1200 O.3      183 DG      0.0000
    899 C3'        0.6705     8.9233   572.8086 C.3      183 DG      0.0000
    900 O3'       -0.6487     9.4993   572.9675 O.3      183 DG      0.0000
    901 C2'        0.9001     7.5768   573.4612 C.3      183 DG      0.0000
    902 C1'        0.4118     6.6202   572.3797 C.3      183 DG      0.0000
    903 N9         0.9897     5.2824   572.5492 N.ar     183 DG      0.0000
    904 C8         2.2704     4.9400   572.8854 C.ar     183 DG      0.0000
    905 N7         2.4872     3.6460   572.9712 N.ar     183 DG      0.0000
    906 C5         1.2490     3.0998   572.6411 C.ar     183 DG      0.0000
    907 C6         0.8246     1.7435   572.5468 C.2      183 DG      0.0000
    908 O6         1.4925     0.7166   572.7391 O.2      183 DG      0.0000
    909 N1        -0.5006     1.5843   572.2117 N.am     183 DG      0.0000
    910 C2        -1.3201     2.6484   571.9880 C.2      183 DG      0.0000
    911 N2        -2.5774     2.3050   571.6792 N.pl3    183 DG      0.0000
    912 N3        -0.9708     3.9309   572.0590 N.2      183 DG      0.0000
    913 C4         0.3234     4.0886   572.3856 C.ar     183 DG      0.0000
    914 H5'        1.9420    10.3177   570.4801 H        183 DG      0.0000
    915 H5''       2.5221     8.7243   569.9282 H        183 DG      0.0000
    916 H4'        0.0587     9.1115   570.7700 H        183 DG      0.0000
    917 H3'        1.4201     9.6307   573.1634 H        183 DG      0.0000
    918 H2'        1.9552     7.4185   573.6842 H        183 DG      0.0000
    919 H2''       0.2967     7.4782   574.3636 H        183 DG      0.0000
    920 H1'       -0.6740     6.5456   572.4386 H        183 DG      0.0000
    921 H8         3.0420     5.6738   573.0660 H        183 DG      0.0000
    922 H1        -0.8766     0.6505   572.1294 H        183 DG      0.0000
    923 H21       -2.8369     1.3302   571.6289 H        183 DG      0.0000
    924 H22       -3.2661     3.0210   571.4965 H        183 DG      0.0000
    925 P         -1.1590    10.0049   574.3559 P.3      184 DA      0.0000
    926 OP1       -0.8530    11.4238   574.7113 O.co2    184 DA      0.0000
    927 OP2       -0.2501     9.0854   575.2517 O.co2    184 DA      0.0000
    928 O5'       -2.6243     9.4522   574.6050 O.3      184 DA      0.0000
    929 C5'       -3.5362     9.0407   573.5760 C.3      184 DA      0.0000
    930 C4'       -4.1029     7.7123   574.0503 C.3      184 DA      0.0000
    931 O4'       -3.1237     6.6997   573.9599 O.3      184 DA      0.0000
    932 C3'       -4.6450     7.6797   575.4794 C.3      184 DA      0.0000
    933 O3'       -5.9405     7.0474   575.5316 O.3      184 DA      0.0000
    934 C2'       -3.5598     6.8838   576.2148 C.3      184 DA      0.0000
    935 C1'       -3.2386     5.8594   575.1372 C.3      184 DA      0.0000
    936 N9        -1.9845     5.1345   575.3656 N.ar     184 DA      0.0000
    937 C8        -0.7222     5.6101   575.5814 C.ar     184 DA      0.0000
    938 N7         0.1807     4.6692   575.7464 N.ar     184 DA      0.0000
    939 C5        -0.5374     3.4910   575.6062 C.ar     184 DA      0.0000
    940 C6        -0.1348     2.1384   575.6541 C.ar     184 DA      0.0000
    941 N6         1.1175     1.7309   575.8739 N.pl3    184 DA      0.0000
    942 N1        -1.1340     1.2262   575.4643 N.ar     184 DA      0.0000
    943 C2        -2.4107     1.6178   575.2466 C.ar     184 DA      0.0000
    944 N3        -2.8623     2.8701   575.1883 N.ar     184 DA      0.0000
    945 C4        -1.8655     3.7543   575.3752 C.ar     184 DA      0.0000
    946 H5'       -3.0115     8.9154   572.6288 H        184 DA      0.0000
    947 H5''      -4.3361     9.7733   573.4682 H        184 DA      0.0000
    948 H4'       -4.9197     7.4432   573.3805 H        184 DA      0.0000
    949 H3'       -4.7050     8.6913   575.8808 H        184 DA      0.0000
    950 H2'       -2.6963     7.5020   576.4603 H        184 DA      0.0000
    951 H2''      -3.9630     6.4023   577.1057 H        184 DA      0.0000
    952 H1'       -4.0654     5.1584   575.0227 H        184 DA      0.0000
    953 H8        -0.4874     6.6638   575.6135 H        184 DA      0.0000
    954 H2        -3.1398     0.8336   575.1052 H        184 DA      0.0000
    955 H61        1.9399     2.3091   575.7765 H        184 DA      0.0000
    956 H62        1.3429     0.7614   575.7024 H        184 DA      0.0000
    957 P         -7.0588     7.4278   576.6731 P.3      185 DA      0.0000
    958 OP1       -8.2929     7.9824   576.0060 O.co2    185 DA      0.0000
    959 OP2       -6.3028     8.3869   577.5040 O.co2    185 DA      0.0000
    960 O5'       -7.5106     5.9928   577.2039 O.3      185 DA      0.0000
    961 C5'       -8.1260     5.0044   576.3796 C.3      185 DA      0.0000
    962 C4'       -7.7228     3.6366   576.9019 C.3      185 DA      0.0000
    963 O4'       -6.3307     3.4941   576.9301 O.3      185 DA      0.0000
    964 C3'       -8.2431     3.2282   578.2692 C.3      185 DA      0.0000
    965 O3'       -9.1071     2.0946   578.1914 O.3      185 DA      0.0000
    966 C2'       -6.9693     3.0213   579.0980 C.3      185 DA      0.0000
    967 C1'       -5.9145     2.7242   578.1042 C.3      185 DA      0.0000
    968 N9        -4.5122     3.0914   578.3722 N.ar     185 DA      0.0000
    969 C8        -3.9299     4.3304   578.4874 C.ar     185 DA      0.0000
    970 N7        -2.6293     4.2987   578.6567 N.ar     185 DA      0.0000
    971 C5        -2.3232     2.9421   578.6197 C.ar     185 DA      0.0000
    972 C6        -1.0867     2.2460   578.7401 C.ar     185 DA      0.0000
    973 N6         0.0993     2.8099   578.9318 N.pl3    185 DA      0.0000
    974 N1        -1.1639     0.8792   578.6420 N.ar     185 DA      0.0000
    975 C2        -2.3668     0.2629   578.4529 C.ar     185 DA      0.0000
    976 N3        -3.5533     0.8499   578.3450 N.ar     185 DA      0.0000
    977 C4        -3.4616     2.1918   578.4369 C.ar     185 DA      0.0000
    978 H5'       -7.7888     5.1204   575.3496 H        185 DA      0.0000
    979 H5''      -9.2098     5.1104   576.4256 H        185 DA      0.0000
    980 H4'       -8.1003     2.9033   576.1892 H        185 DA      0.0000
    981 H3'       -8.8016     4.0630   578.6924 H        185 DA      0.0000
    982 H2'       -6.7253     3.9238   579.6582 H        185 DA      0.0000
    983 H2''      -7.0947     2.1784   579.7775 H        185 DA      0.0000
    984 H1'       -5.9561     1.6632   577.8581 H        185 DA      0.0000
    985 H8        -4.4937     5.2505   578.4425 H        185 DA      0.0000
    986 H2        -2.3523    -0.8148   578.3837 H        185 DA      0.0000
    987 H61        0.1975     3.7608   579.2580 H        185 DA      0.0000
    988 H62        0.9321     2.2698   578.7450 H        185 DA      0.0000
    989 P        -10.3932     1.8191   579.1476 P.3      186 DT      0.0000
    990 OP1      -11.5797     1.2893   578.3503 O.co2    186 DT      0.0000
    991 OP2      -10.6781     2.9775   579.9682 O.co2    186 DT      0.0000
    992 O5'       -9.9159     0.4718   579.9613 O.3      186 DT      0.0000
    993 C5'       -9.2133    -0.4435   579.0162 C.3      186 DT      0.0000
    994 C4'       -8.0369    -0.9616   579.8039 C.3      186 DT      0.0000
    995 O4'       -7.0185    -0.0056   579.9959 O.3      186 DT      0.0000
    996 C3'       -8.4382    -1.4127   581.2205 C.3      186 DT      0.0000
    997 O3'       -8.6190    -2.8167   581.2222 O.3      186 DT      0.0000
    998 C2'       -7.3101    -0.9098   582.1178 C.3      186 DT      0.0000
    999 C1'       -6.2499    -0.5552   581.1532 C.3      186 DT      0.0000
   1000 N1        -5.2423     0.4368   581.4929 N.am     186 DT      0.0000
   1001 C2        -3.9345    -0.0176   581.6309 C.2      186 DT      0.0000
   1002 O2        -3.6935    -1.2147   581.5428 O.2      186 DT      0.0000
   1003 N3        -2.9581     0.8977   581.8849 N.am     186 DT      0.0000
   1004 C4        -3.2128     2.2339   582.0050 C.2      186 DT      0.0000
   1005 O4        -2.2484     3.0238   582.2602 O.2      186 DT      0.0000
   1006 C5        -4.5641     2.6814   581.8334 C.2      186 DT      0.0000
   1007 C7        -4.8953     4.1454   581.9209 C.3      186 DT      0.0000
   1008 C6        -5.5230     1.7747   581.5777 C.2      186 DT      0.0000
   1009 H5'       -9.8666    -1.2623   578.7146 H        186 DT      0.0000
   1010 H5''      -8.8692     0.1079   578.1412 H        186 DT      0.0000
   1011 H4'       -7.6148    -1.8161   579.2748 H        186 DT      0.0000
   1012 H3'       -9.3715    -0.9267   581.5049 H        186 DT      0.0000
   1013 H2'       -7.6251    -0.0380   582.6912 H        186 DT      0.0000
   1014 H2''      -6.9702    -1.7025   582.7842 H        186 DT      0.0000
   1015 H1'       -5.7471    -1.4687   580.8358 H        186 DT      0.0000
   1016 H3        -2.0067     0.5748   581.9886 H        186 DT      0.0000
   1017 H6        -6.5399     2.1095   581.4355 H        186 DT      0.0000
   1018 H71       -3.9885     4.7115   582.1340 H        186 DT      0.0000
   1019 H72       -5.3175     4.4794   580.9732 H        186 DT      0.0000
   1020 H73       -5.6202     4.3069   582.7187 H        186 DT      0.0000
   1021 P         -9.2212    -3.7236   582.3288 P.3      187 DT      0.0000
   1022 OP1       -9.7402    -5.0504   581.7167 O.co2    187 DT      0.0000
   1023 OP2      -10.3160    -2.9414   582.9588 O.co2    187 DT      0.0000
   1024 O5'       -7.9594    -4.1721   583.2111 O.3      187 DT      0.0000
   1025 C5'       -7.0831    -5.0865   582.4994 C.3      187 DT      0.0000
   1026 C4'       -5.7562    -5.0999   583.1755 C.3      187 DT      0.0000
   1027 O4'       -5.0869    -3.8452   583.1522 O.3      187 DT      0.0000
   1028 C3'       -5.7963    -5.5527   584.6422 C.3      187 DT      0.0000
   1029 O3'       -4.7335    -6.4488   584.9062 O.3      187 DT      0.0000
   1030 C2'       -5.5482    -4.2147   585.3785 C.3      187 DT      0.0000
   1031 C1'       -4.4503    -3.6915   584.4749 C.3      187 DT      0.0000
   1032 N1        -4.1454    -2.3042   584.7726 N.am     187 DT      0.0000
   1033 C2        -2.8164    -1.9166   584.8275 C.2      187 DT      0.0000
   1034 O2        -1.9406    -2.7622   584.6390 O.2      187 DT      0.0000
   1035 N3        -2.5359    -0.6060   585.0934 N.am     187 DT      0.0000
   1036 C4        -3.5139     0.3179   585.3004 C.2      187 DT      0.0000
   1037 O4        -3.1785     1.5162   585.5237 O.2      187 DT      0.0000
   1038 C5        -4.8777    -0.0913   585.2353 C.2      187 DT      0.0000
   1039 C7        -6.0122     0.8687   585.4452 C.3      187 DT      0.0000
   1040 C6        -5.1352    -1.3823   584.9742 C.2      187 DT      0.0000
   1041 H5'       -7.5110    -6.0889   582.5118 H        187 DT      0.0000
   1042 H5''      -6.9649    -4.7521   581.4687 H        187 DT      0.0000
   1043 H4'       -5.1280    -5.8095   582.6370 H        187 DT      0.0000
   1044 H3'       -6.7622    -5.9843   584.9046 H        187 DT      0.0000
   1045 H2'       -6.4280    -3.5714   585.3773 H        187 DT      0.0000
   1046 H2''      -5.1815    -4.3821   586.3912 H        187 DT      0.0000
   1047 H1'       -3.5565    -4.3107   584.5506 H        187 DT      0.0000
   1048 H3        -1.5704    -0.3129   585.1378 H        187 DT      0.0000
   1049 H6        -6.1643    -1.7058   584.9211 H        187 DT      0.0000
   1050 H71       -5.6147     1.8639   585.6441 H        187 DT      0.0000
   1051 H72       -6.6333     0.8981   584.5499 H        187 DT      0.0000
   1052 H73       -6.6131     0.5412   586.2936 H        187 DT      0.0000
   1053 P         -4.5875    -7.8882   585.5142 P.3      188 DC      0.0000
   1054 OP1       -4.2398    -8.9074   584.4462 O.co2    188 DC      0.0000
   1055 OP2       -5.8424    -8.1302   586.2491 O.co2    188 DC      0.0000
   1056 O5'       -3.2115    -7.5977   586.3402 O.3      188 DC      0.0000
   1057 C5'       -2.3072    -7.0386   585.3179 C.3      188 DC      0.0000
   1058 C4'       -1.0276    -6.6725   586.0144 C.3      188 DC      0.0000
   1059 O4'       -0.9231    -5.3046   586.2613 O.3      188 DC      0.0000
   1060 C3'       -0.7527    -7.4346   587.3059 C.3      188 DC      0.0000
   1061 O3'        0.4985    -8.1045   587.2262 O.3      188 DC      0.0000
   1062 C2'       -0.9190    -6.3328   588.3546 C.3      188 DC      0.0000
   1063 C1'       -0.5313    -5.0888   587.6582 C.3      188 DC      0.0000
   1064 N1        -1.2842    -3.8752   587.9903 N.am     188 DC      0.0000
   1065 C2        -0.5221    -2.7374   588.2461 C.2      188 DC      0.0000
   1066 O2         0.7121    -2.7780   588.2506 O.2      188 DC      0.0000
   1067 N3        -1.1961    -1.5729   588.5200 N.2      188 DC      0.0000
   1068 C4        -2.5590    -1.5198   588.5101 C.2      188 DC      0.0000
   1069 N4        -3.1185    -0.3471   588.7869 N.pl3    188 DC      0.0000
   1070 C5        -3.3183    -2.6777   588.2320 C.2      188 DC      0.0000
   1071 C6        -2.6415    -3.8140   587.9672 C.2      188 DC      0.0000
   1072 H5'       -2.1126    -7.7814   584.5443 H        188 DC      0.0000
   1073 H5''      -2.7547    -6.1496   584.8737 H        188 DC      0.0000
   1074 H4'       -0.2191    -6.9254   585.3285 H        188 DC      0.0000
   1075 H3'       -1.5386    -8.1762   587.4492 H        188 DC      0.0000
   1076 H2'       -1.9538    -6.2772   588.6925 H        188 DC      0.0000
   1077 H2''      -0.2554    -6.5139   589.2002 H        188 DC      0.0000
   1078 H1'        0.5418    -4.9156   587.7392 H        188 DC      0.0000
   1079 H5        -4.3981    -2.6543   588.2315 H        188 DC      0.0000
   1080 H6        -3.1986    -4.7078   587.7282 H        188 DC      0.0000
   1081 H41       -2.5379     0.4549   588.9861 H        188 DC      0.0000
   1082 H42       -4.1244    -0.2577   588.7982 H        188 DC      0.0000
   1083 P          1.0012    -9.3187   588.1782 P.3      189 DA      0.0000
   1084 OP1        2.0224   -10.1107   587.3845 O.co2    189 DA      0.0000
   1085 OP2       -0.1774   -10.1392   588.5238 O.co2    189 DA      0.0000
   1086 O5'        1.6677    -8.5560   589.4753 O.3      189 DA      0.0000
   1087 C5'        2.6803    -7.5458   589.1800 C.3      189 DA      0.0000
   1088 C4'        3.1233    -6.8685   590.4353 C.3      189 DA      0.0000
   1089 O4'        2.5286    -5.5898   590.6774 O.3      189 DA      0.0000
   1090 C3'        2.8160    -7.6214   591.7405 C.3      189 DA      0.0000
   1091 O3'        3.6671    -7.1134   592.7705 O.3      189 DA      0.0000
   1092 C2'        1.3593    -7.1642   591.9551 C.3      189 DA      0.0000
   1093 C1'        1.6182    -5.6650   591.7719 C.3      189 DA      0.0000
   1094 N9         0.3467    -4.9678   591.6775 N.ar     189 DA      0.0000
   1095 C8        -0.9273    -5.4508   591.5617 C.ar     189 DA      0.0000
   1096 N7        -1.8737    -4.5294   591.5431 N.ar     189 DA      0.0000
   1097 C5        -1.1620    -3.3430   591.6506 C.ar     189 DA      0.0000
   1098 C6        -1.5750    -1.9882   591.6852 C.ar     189 DA      0.0000
   1099 N6        -2.8301    -1.5854   591.5999 N.pl3    189 DA      0.0000
   1100 N1        -0.5823    -1.0601   591.8177 N.ar     189 DA      0.0000
   1101 C2         0.7330    -1.4334   591.8979 C.ar     189 DA      0.0000
   1102 N3         1.1973    -2.6803   591.8681 N.ar     189 DA      0.0000
   1103 C4         0.1982    -3.5882   591.7451 C.ar     189 DA      0.0000
   1104 H5'        3.5385    -8.0250   588.7089 H        189 DA      0.0000
   1105 H5''       2.2623    -6.8047   588.4987 H        189 DA      0.0000
   1106 H4'        4.2026    -6.7289   590.3764 H        189 DA      0.0000
   1107 H3'        2.9002    -8.7022   591.6269 H        189 DA      0.0000
   1108 H2'        0.6792    -7.5666   591.2044 H        189 DA      0.0000
   1109 H2''       1.0159    -7.3887   592.9650 H        189 DA      0.0000
   1110 H1'        2.1334    -5.3029   592.6615 H        189 DA      0.0000
   1111 H8        -1.1437    -6.5065   591.4907 H        189 DA      0.0000
   1112 H2         1.4614    -0.6419   591.9944 H        189 DA      0.0000
   1113 H61       -3.3020    -0.7107   591.7800 H        189 DA      0.0000
   1114 H62       -3.4562    -2.3127   591.2852 H        189 DA      0.0000
   1115 P          5.1861    -7.5965   592.9109 P.3      190 DC      0.0000
   1116 OP1        5.7236    -8.2145   591.6658 O.co2    190 DC      0.0000
   1117 OP2        5.1060    -8.5668   594.0538 O.co2    190 DC      0.0000
   1118 O5'        5.9724    -6.2488   593.1941 O.3      190 DC      0.0000
   1119 C5'        6.3625    -5.3569   592.1064 C.3      190 DC      0.0000
   1120 C4'        6.3654    -3.9957   592.8113 C.3      190 DC      0.0000
   1121 O4'        5.0281    -3.6813   593.1233 O.3      190 DC      0.0000
   1122 C3'        7.1490    -3.9825   594.1212 C.3      190 DC      0.0000
   1123 O3'        8.1137    -2.9081   594.1891 O.3      190 DC      0.0000
   1124 C2'        6.0625    -3.8926   595.2034 C.3      190 DC      0.0000
   1125 C1'        5.0005    -3.1243   594.5273 C.3      190 DC      0.0000
   1126 N1         3.5934    -3.2949   594.8801 N.am     190 DC      0.0000
   1127 C2         2.8307    -2.1288   594.8532 C.2      190 DC      0.0000
   1128 O2         3.3178    -1.0244   594.6463 O.2      190 DC      0.0000
   1129 N3         1.4996    -2.2468   595.1063 N.2      190 DC      0.0000
   1130 C4         0.9065    -3.4425   595.3397 C.2      190 DC      0.0000
   1131 N4        -0.4050    -3.4301   595.5706 N.pl3    190 DC      0.0000
   1132 C5         1.6932    -4.6271   595.3462 C.2      190 DC      0.0000
   1133 C6         3.0060    -4.5029   595.0968 C.2      190 DC      0.0000
   1134 H5'        7.3510    -5.6076   591.7215 H        190 DC      0.0000
   1135 H5''       5.6213    -5.3758   591.3074 H        190 DC      0.0000
   1136 H4'        6.7692    -3.2391   592.1387 H        190 DC      0.0000
   1137 H3'        7.6729    -4.9325   594.2271 H        190 DC      0.0000
   1138 H2'        5.7098    -4.8833   595.4904 H        190 DC      0.0000
   1139 H2''       6.4325    -3.3507   596.0737 H        190 DC      0.0000
   1140 H1'        5.2566    -2.0649   594.5140 H        190 DC      0.0000
   1141 H5         1.2503    -5.5919   595.5447 H        190 DC      0.0000
   1142 H6         3.6174    -5.3926   595.0671 H        190 DC      0.0000
   1143 H41       -0.9114    -2.5563   595.5596 H        190 DC      0.0000
   1144 H42       -0.8932    -4.2944   595.7568 H        190 DC      0.0000
   1145 P         -7.4306     4.1028   597.1487 P.3      190 DG      0.0000
   1146 OP1       -8.7615     4.7613   597.3274 O.co2    190 DG      0.0000
   1147 OP2       -7.4349     3.0339   596.0638 O.co2    190 DG      0.0000
   1148 O5'       -6.2746     5.2561   596.9414 O.3      190 DG      0.0000
   1149 C5'       -5.3418     5.5374   598.0372 C.3      190 DG      0.0000
   1150 C4'       -3.9785     5.8028   597.4029 C.3      190 DG      0.0000
   1151 O4'       -3.2077     4.6362   597.3071 O.3      190 DG      0.0000
   1152 C3'       -4.0402     6.3930   595.9966 C.3      190 DG      0.0000
   1153 O3'       -3.0427     7.4058   595.7296 O.3      190 DG      0.0000
   1154 C2'       -3.8482     5.1607   595.0943 C.3      190 DG      0.0000
   1155 C1'       -2.8558     4.3571   595.9181 C.3      190 DG      0.0000
   1156 N9        -2.9842     2.9155   595.6448 N.ar     190 DG      0.0000
   1157 C8        -4.1377     2.1845   595.4881 C.ar     190 DG      0.0000
   1158 N7        -3.9347     0.9124   595.2697 N.ar     190 DG      0.0000
   1159 C5        -2.5503     0.7909   595.2945 C.ar     190 DG      0.0000
   1160 C6        -1.7054    -0.3401   595.1381 C.2      190 DG      0.0000
   1161 O6        -2.0637    -1.5100   594.9412 O.2      190 DG      0.0000
   1162 N1        -0.3640    -0.0598   595.2250 N.am     190 DG      0.0000
   1163 C2         0.1096     1.1910   595.4457 C.2      190 DG      0.0000
   1164 N2         1.4330     1.3099   595.5090 N.pl3    190 DG      0.0000
   1165 N3        -0.6412     2.2880   595.6034 N.2      190 DG      0.0000
   1166 C4        -1.9572     2.0123   595.5201 C.ar     190 DG      0.0000
   1167 H5'       -5.6725     6.4135   598.5950 H        190 DG      0.0000
   1168 H5''      -5.2802     4.6759   598.7021 H        190 DG      0.0000
   1169 H4'       -3.4434     6.5074   598.0396 H        190 DG      0.0000
   1170 H3'       -5.0319     6.8120   595.8261 H        190 DG      0.0000
   1171 H2'       -4.7830     4.6185   594.9516 H        190 DG      0.0000
   1172 H2''      -3.4152     5.4458   594.1355 H        190 DG      0.0000
   1173 H1'       -1.8385     4.6904   595.7129 H        190 DG      0.0000
   1174 H8        -5.1236     2.6223   595.5409 H        190 DG      0.0000
   1175 H1         0.2967    -0.8164   595.1202 H        190 DG      0.0000
   1176 H21        2.0192     0.4955   595.3939 H        190 DG      0.0000
   1177 H22        1.8516     2.2144   595.6722 H        190 DG      0.0000
   1178 P         -2.5585     7.5177   594.2061 P.3      189 DT      0.0000
   1179 OP1       -2.0993     8.8966   593.8152 O.co2    189 DT      0.0000
   1180 OP2       -3.8137     7.1506   593.5056 O.co2    189 DT      0.0000
   1181 O5'       -1.3472     6.4771   594.0752 O.3      189 DT      0.0000
   1182 C5'       -0.0038     6.9922   594.3428 C.3      189 DT      0.0000
   1183 C4'        0.9938     6.1427   593.5858 C.3      189 DT      0.0000
   1184 O4'        0.6421     4.7708   593.5585 O.3      189 DT      0.0000
   1185 C3'        1.1484     6.5585   592.1311 C.3      189 DT      0.0000
   1186 O3'        2.5024     6.4747   591.6360 O.3      189 DT      0.0000
   1187 C2'        0.2240     5.6041   591.4082 C.3      189 DT      0.0000
   1188 C1'        0.5223     4.3333   592.1863 C.3      189 DT      0.0000
   1189 N1        -0.6510     3.4585   592.0350 N.am     189 DT      0.0000
   1190 C2        -0.4163     2.0915   592.1418 C.2      189 DT      0.0000
   1191 O2         0.7192     1.6687   592.3315 O.2      189 DT      0.0000
   1192 N3        -1.4958     1.2616   592.0216 N.am     189 DT      0.0000
   1193 C4        -2.7528     1.7407   591.8040 C.2      189 DT      0.0000
   1194 O4        -3.6970     0.8889   591.7065 O.2      189 DT      0.0000
   1195 C5        -2.9618     3.1454   591.6977 C.2      189 DT      0.0000
   1196 C7        -4.3445     3.6852   591.4687 C.3      189 DT      0.0000
   1197 C6        -1.9039     3.9513   591.8194 C.2      189 DT      0.0000
   1198 H5'        0.0665     8.0275   594.0091 H        189 DT      0.0000
   1199 H5''       0.2039     6.9367   595.4114 H        189 DT      0.0000
   1200 H4'        1.9638     6.2376   594.0737 H        189 DT      0.0000
   1201 H3'        0.7822     7.5777   592.0071 H        189 DT      0.0000
   1202 H2'       -0.8207     5.9015   591.4998 H        189 DT      0.0000
   1203 H2''       0.5106     5.4987   590.3618 H        189 DT      0.0000
   1204 H1'        1.4342     3.8499   591.8357 H        189 DT      0.0000
   1205 H3        -1.3577     0.2639   592.0963 H        189 DT      0.0000
   1206 H6        -2.0441     5.0195   591.7453 H        189 DT      0.0000
   1207 H71       -5.0512     2.8582   591.4000 H        189 DT      0.0000
   1208 H72       -4.6235     4.3331   592.2996 H        189 DT      0.0000
   1209 H73       -4.3625     4.2565   590.5406 H        189 DT      0.0000
   1210 P          2.8272     7.9041   590.8576 P.3      188 DG      0.0000
   1211 OP1        3.4981     8.9155   591.7288 O.co2    188 DG      0.0000
   1212 OP2        1.4426     8.2521   590.4520 O.co2    188 DG      0.0000
   1213 O5'        3.8962     7.4102   589.7768 O.3      188 DG      0.0000
   1214 C5'        5.2640     7.1808   590.2002 C.3      188 DG      0.0000
   1215 C4'        5.5769     5.7586   589.7525 C.3      188 DG      0.0000
   1216 O4'        4.4708     4.9211   590.0232 O.3      188 DG      0.0000
   1217 C3'        5.9013     5.6230   588.2648 C.3      188 DG      0.0000
   1218 O3'        7.1648     5.0178   588.0563 O.3      188 DG      0.0000
   1219 C2'        4.7138     4.8729   587.6881 C.3      188 DG      0.0000
   1220 C1'        4.2080     4.0863   588.8742 C.3      188 DG      0.0000
   1221 N9         2.7729     3.8173   588.7506 N.ar     188 DG      0.0000
   1222 C8         1.7528     4.7121   588.5918 C.ar     188 DG      0.0000
   1223 N7         0.5692     4.1545   588.5137 N.ar     188 DG      0.0000
   1224 C5         0.8268     2.7936   588.6512 C.ar     188 DG      0.0000
   1225 C6        -0.0324     1.6633   588.6607 C.2      188 DG      0.0000
   1226 O6        -1.2553     1.6616   588.5616 O.2      188 DG      0.0000
   1227 N1         0.6063     0.4651   588.8097 N.am     188 DG      0.0000
   1228 C2         1.9709     0.3767   588.9426 C.2      188 DG      0.0000
   1229 N2         2.4643    -0.8546   589.0782 N.pl3    188 DG      0.0000
   1230 N3         2.8342     1.3975   588.9468 N.2      188 DG      0.0000
   1231 C4         2.1868     2.5780   588.7961 C.ar     188 DG      0.0000
   1232 H5'        5.9383     7.8910   589.7215 H        188 DG      0.0000
   1233 H5''       5.3412     7.2602   591.2846 H        188 DG      0.0000
   1234 H4'        6.4308     5.3972   590.3255 H        188 DG      0.0000
   1235 H3'        5.9225     6.6206   587.8262 H        188 DG      0.0000
   1236 H2'        3.9538     5.5630   587.3217 H        188 DG      0.0000
   1237 H2''       5.0356     4.2008   586.8925 H        188 DG      0.0000
   1238 H1'        4.7570     3.1487   588.9612 H        188 DG      0.0000
   1239 H8         1.9073     5.7795   588.5357 H        188 DG      0.0000
   1240 H1         0.0579    -0.3829   588.8225 H        188 DG      0.0000
   1241 H21        1.8425    -1.6505   589.0792 H        188 DG      0.0000
   1242 H22        3.4597    -0.9913   589.1800 H        188 DG      0.0000
   1243 P          7.6964     3.8078   587.1900 P.3      187 DA      0.0000
   1244 OP1        8.7601     3.0261   587.9713 O.co2    187 DA      0.0000
   1245 OP2        8.2854     4.4209   585.9973 O.co2    187 DA      0.0000
   1246 O5'        6.4392     2.7865   587.0152 O.3      187 DA      0.0000
   1247 C5'        6.3131     1.8765   588.1716 C.3      187 DA      0.0000
   1248 C4'        6.5200     0.4784   587.6438 C.3      187 DA      0.0000
   1249 O4'        5.3082    -0.1971   587.4215 O.3      187 DA      0.0000
   1250 C3'        7.2533     0.4501   586.3033 C.3      187 DA      0.0000
   1251 O3'        8.2025    -0.5865   586.2281 O.3      187 DA      0.0000
   1252 C2'        6.1081     0.4323   585.3067 C.3      187 DA      0.0000
   1253 C1'        4.9225    -0.1421   586.0306 C.3      187 DA      0.0000
   1254 N9         3.7073     0.6589   585.8051 N.ar     187 DA      0.0000
   1255 C8         3.5888     2.0193   585.6187 C.ar     187 DA      0.0000
   1256 N7         2.3582     2.4338   585.4228 N.ar     187 DA      0.0000
   1257 C5         1.6115     1.2656   585.5097 C.ar     187 DA      0.0000
   1258 C6         0.2201     1.0344   585.4040 C.ar     187 DA      0.0000
   1259 N6        -0.6698     1.9878   585.1916 N.pl3    187 DA      0.0000
   1260 N1        -0.1828    -0.2605   585.5278 N.ar     187 DA      0.0000
   1261 C2         0.7142    -1.2657   585.7523 C.ar     187 DA      0.0000
   1262 N3         2.0320    -1.1156   585.8682 N.ar     187 DA      0.0000
   1263 C4         2.4203     0.1754   585.7320 C.ar     187 DA      0.0000
   1264 H5'        7.0701     2.1119   588.9197 H        187 DA      0.0000
   1265 H5''       5.3184     1.9657   588.6083 H        187 DA      0.0000
   1266 H4'        7.1040    -0.0852   588.3715 H        187 DA      0.0000
   1267 H3'        7.7813     1.3969   586.1902 H        187 DA      0.0000
   1268 H2'        6.3643    -0.1907   584.4499 H        187 DA      0.0000
   1269 H2''       5.8866     1.4471   584.9762 H        187 DA      0.0000
   1270 H1'        4.7480    -1.1566   585.6724 H        187 DA      0.0000
   1271 H8         4.4366     2.6882   585.6326 H        187 DA      0.0000
   1272 H2         0.3210    -2.2674   585.8435 H        187 DA      0.0000
   1273 H61       -1.6245     1.8912   585.5070 H        187 DA      0.0000
   1274 H62       -0.3905     2.8278   584.7053 H        187 DA      0.0000
   1275 P          8.6062    -1.5512   585.0435 P.3      186 DA      0.0000
   1276 OP1        9.5193    -2.6997   585.5634 O.co2    186 DA      0.0000
   1277 OP2        9.3947    -0.6881   584.1098 O.co2    186 DA      0.0000
   1278 O5'        7.2898    -2.2558   584.5408 O.3      186 DA      0.0000
   1279 C5'        6.9649    -3.5854   584.9967 C.3      186 DA      0.0000
   1280 C4'        5.6879    -3.9933   584.2947 C.3      186 DA      0.0000
   1281 O4'        4.7445    -2.9671   584.1740 O.3      186 DA      0.0000
   1282 C3'        5.9153    -4.5429   582.8872 C.3      186 DA      0.0000
   1283 O3'        5.5648    -5.9394   582.8558 O.3      186 DA      0.0000
   1284 C2'        5.1404    -3.5782   581.9877 C.3      186 DA      0.0000
   1285 C1'        4.0532    -3.0705   582.8854 C.3      186 DA      0.0000
   1286 N9         3.5288    -1.7421   582.5859 N.ar     186 DA      0.0000
   1287 C8         4.2096    -0.5581   582.3911 C.ar     186 DA      0.0000
   1288 N7         3.4257     0.4767   582.1857 N.ar     186 DA      0.0000
   1289 C5         2.1494    -0.0462   582.2602 C.ar     186 DA      0.0000
   1290 C6         0.8759     0.5510   582.1267 C.ar     186 DA      0.0000
   1291 N6         0.6864     1.8443   581.8835 N.pl3    186 DA      0.0000
   1292 N1        -0.1879    -0.3022   582.2756 N.ar     186 DA      0.0000
   1293 C2        -0.0270    -1.6154   582.5281 C.ar     186 DA      0.0000
   1294 N3         1.1422    -2.2477   582.6669 N.ar     186 DA      0.0000
   1295 C4         2.1884    -1.4045   582.5197 C.ar     186 DA      0.0000
   1296 H5'        7.7691    -4.2755   584.7415 H        186 DA      0.0000
   1297 H5''       6.8094    -3.5798   586.0755 H        186 DA      0.0000
   1298 H4'        5.2313    -4.7878   584.8849 H        186 DA      0.0000
   1299 H3'        6.9757    -4.4517   582.6522 H        186 DA      0.0000
   1300 H2'        5.7790    -2.7628   581.6478 H        186 DA      0.0000
   1301 H2''       4.7149    -4.1094   581.1363 H        186 DA      0.0000
   1302 H1'        3.2410    -3.7950   582.9465 H        186 DA      0.0000
   1303 H8         5.2872    -0.4880   582.4061 H        186 DA      0.0000
   1304 H2        -0.9227    -2.2106   582.6271 H        186 DA      0.0000
   1305 H61       -0.2071     2.2124   582.1775 H        186 DA      0.0000
   1306 H62        1.3867     2.4185   581.4363 H        186 DA      0.0000
   1307 P          5.7062    -6.7480   581.4708 P.3      185 DT      0.0000
   1308 OP1        5.6457    -8.2434   581.5289 O.co2    185 DT      0.0000
   1309 OP2        6.9896    -6.1780   580.9582 O.co2    185 DT      0.0000
   1310 O5'        4.2796    -6.2499   580.7677 O.3      185 DT      0.0000
   1311 C5'        3.2280    -6.2541   581.7800 C.3      185 DT      0.0000
   1312 C4'        1.9011    -6.3485   581.0970 C.3      185 DT      0.0000
   1313 O4'        1.2769    -5.1125   580.9166 O.3      185 DT      0.0000
   1314 C3'        1.9485    -7.0251   579.7358 C.3      185 DT      0.0000
   1315 O3'        0.7968    -7.8346   579.4685 O.3      185 DT      0.0000
   1316 C2'        2.0971    -5.7866   578.8424 C.3      185 DT      0.0000
   1317 C1'        1.1161    -4.8277   579.4825 C.3      185 DT      0.0000
   1318 N1         1.5114    -3.4253   579.2525 N.am     185 DT      0.0000
   1319 C2         0.5005    -2.4882   579.1309 C.2      185 DT      0.0000
   1320 O2        -0.6849    -2.8215   579.1677 O.2      185 DT      0.0000
   1321 N3         0.8569    -1.1775   578.9635 N.am     185 DT      0.0000
   1322 C4         2.1586    -0.7866   578.9149 C.2      185 DT      0.0000
   1323 O4         2.3964     0.4442   578.7294 O.2      185 DT      0.0000
   1324 C5         3.1827    -1.7635   579.0633 C.2      185 DT      0.0000
   1325 C7         4.6389    -1.3664   579.0112 C.3      185 DT      0.0000
   1326 C6         2.8183    -3.0383   579.2363 C.2      185 DT      0.0000
   1327 H5'        3.3606    -7.1098   582.4421 H        185 DT      0.0000
   1328 H5''       3.2756    -5.3325   582.3600 H        185 DT      0.0000
   1329 H4'        1.2516    -6.9489   581.7341 H        185 DT      0.0000
   1330 H3'        2.8481    -7.6363   579.6638 H        185 DT      0.0000
   1331 H2'        3.1135    -5.3943   578.8730 H        185 DT      0.0000
   1332 H2''       1.8020    -6.0129   577.8178 H        185 DT      0.0000
   1333 H1'        0.0957    -5.0162   579.1485 H        185 DT      0.0000
   1334 H3         0.1319    -0.4801   578.8733 H        185 DT      0.0000
   1335 H6         3.5857    -3.7869   579.3677 H        185 DT      0.0000
   1336 H71        5.0258    -1.5335   578.0061 H        185 DT      0.0000
   1337 H72        5.2048    -1.9676   579.7228 H        185 DT      0.0000
   1338 H73        4.7372    -0.3116   579.2678 H        185 DT      0.0000
   1339 P          0.7344    -8.5059   577.9786 P.3      184 DT      0.0000
   1340 OP1        0.8471   -10.0244   578.1266 O.co2    184 DT      0.0000
   1341 OP2        1.9674    -7.9705   577.3088 O.co2    184 DT      0.0000
   1342 O5'       -0.6050    -8.0779   577.3265 O.3      184 DT      0.0000
   1343 C5'       -1.7878    -7.8047   578.0779 C.3      184 DT      0.0000
   1344 C4'       -2.5949    -6.7926   577.3299 C.3      184 DT      0.0000
   1345 O4'       -2.1252    -5.4728   577.2730 O.3      184 DT      0.0000
   1346 C3'       -2.9582    -7.1135   575.8639 C.3      184 DT      0.0000
   1347 O3'       -4.2582    -6.5249   575.7601 O.3      184 DT      0.0000
   1348 C2'       -1.8985    -6.3083   575.1001 C.3      184 DT      0.0000
   1349 C1'       -2.0515    -5.0160   575.8759 C.3      184 DT      0.0000
   1350 N1        -0.9368    -4.0704   575.7697 N.am     184 DT      0.0000
   1351 C2        -1.2961    -2.7159   575.7691 C.2      184 DT      0.0000
   1352 O2        -2.4790    -2.3714   575.8121 O.2      184 DT      0.0000
   1353 N3        -0.2812    -1.8043   575.7156 N.am     184 DT      0.0000
   1354 C4         1.0322    -2.1647   575.6559 C.2      184 DT      0.0000
   1355 O4         1.9004    -1.2430   575.5935 O.2      184 DT      0.0000
   1356 C5         1.3687    -3.5459   575.6641 C.2      184 DT      0.0000
   1357 C7         2.8239    -3.9606   575.6027 C.3      184 DT      0.0000
   1358 C6         0.3727    -4.4341   575.7306 C.2      184 DT      0.0000
   1359 H5'       -2.3665    -8.7203   578.2001 H        184 DT      0.0000
   1360 H5''      -1.5174    -7.4081   579.0565 H        184 DT      0.0000
   1361 H4'       -3.5473    -6.7369   577.8572 H        184 DT      0.0000
   1362 H3'       -2.9434    -8.1791   575.6352 H        184 DT      0.0000
   1363 H2'       -2.1443    -6.1922   574.0446 H        184 DT      0.0000
   1364 H2''      -0.9043    -6.7352   575.2317 H        184 DT      0.0000
   1365 H1'       -2.9833    -4.5239   575.5968 H        184 DT      0.0000
   1366 H3        -0.5132    -0.8213   575.7205 H        184 DT      0.0000
   1367 H6         0.6182    -5.4856   575.7543 H        184 DT      0.0000
   1368 H71        3.4537    -3.0723   575.5539 H        184 DT      0.0000
   1369 H72        2.9899    -4.5726   574.7161 H        184 DT      0.0000
   1370 H73        3.0757    -4.5359   576.4936 H        184 DT      0.0000
   1371 P         -5.2848    -6.7312   574.6139 P.3      183 DC      0.0000
   1372 OP1       -6.6501    -7.0560   575.2230 O.co2    183 DC      0.0000
   1373 OP2       -4.7906    -7.9077   573.8321 O.co2    183 DC      0.0000
   1374 O5'       -5.2258    -5.2807   573.8745 O.3      183 DC      0.0000
   1375 C5'       -5.8852    -4.1910   574.5990 C.3      183 DC      0.0000
   1376 C4'       -6.4634    -3.2788   573.5485 C.3      183 DC      0.0000
   1377 O4'       -5.6433    -2.1601   573.3032 O.3      183 DC      0.0000
   1378 C3'       -6.7056    -3.9264   572.1841 C.3      183 DC      0.0000
   1379 O3'       -7.8371    -3.4169   571.4748 O.3      183 DC      0.0000
   1380 C2'       -5.3594    -3.6568   571.4979 C.3      183 DC      0.0000
   1381 C1'       -4.9811    -2.2815   572.0445 C.3      183 DC      0.0000
   1382 N1        -3.5049    -2.2274   572.1623 N.am     183 DC      0.0000
   1383 C2        -2.9166    -0.9636   572.1796 C.2      183 DC      0.0000
   1384 O2        -3.6047     0.0641   572.1109 O.2      183 DC      0.0000
   1385 N3        -1.5529    -0.9089   572.2828 N.2      183 DC      0.0000
   1386 C4        -0.7883    -2.0298   572.3535 C.2      183 DC      0.0000
   1387 N4         0.5385    -1.9247   572.4555 N.pl3    183 DC      0.0000
   1388 C5        -1.4141    -3.3074   572.3284 C.2      183 DC      0.0000
   1389 C6        -2.7538    -3.3602   572.2348 C.2      183 DC      0.0000
   1390 H5'       -6.6778    -4.5852   575.2350 H        183 DC      0.0000
   1391 H5''      -5.1567    -3.6499   575.2029 H        183 DC      0.0000
   1392 H4'       -7.4218    -2.9133   573.9172 H        183 DC      0.0000
   1393 H3'       -6.8261    -5.0013   572.3182 H        183 DC      0.0000
   1394 H2'       -5.4674    -3.6338   570.4136 H        183 DC      0.0000
   1395 H2''      -4.6220    -4.4030   571.7939 H        183 DC      0.0000
   1396 H1'       -5.3285    -1.5032   571.3651 H        183 DC      0.0000
   1397 H5        -0.8271    -4.2123   572.3832 H        183 DC      0.0000
   1398 H6        -3.2449    -4.3220   572.2167 H        183 DC      0.0000
   1399 H41        0.9727    -1.0130   572.4762 H        183 DC      0.0000
   1400 H42        1.1082    -2.7568   572.5119 H        183 DC      0.0000
   1401 P         -7.9386    -3.2062   569.8428 P.3      182 DA      0.0000
   1402 OP1       -9.4010    -3.2113   569.4533 O.co2    182 DA      0.0000
   1403 OP2       -7.1364    -4.3226   569.2727 O.co2    182 DA      0.0000
   1404 O5'       -7.3849    -1.7180   569.6772 O.3      182 DA      0.0000
   1405 C5'       -8.2431    -0.6050   570.1427 C.3      182 DA      0.0000
   1406 C4'       -7.7676     0.5406   569.2654 C.3      182 DA      0.0000
   1407 O4'       -6.3862     0.8140   569.5327 O.3      182 DA      0.0000
   1408 C3'       -7.8153     0.2192   567.7610 C.3      182 DA      0.0000
   1409 O3'       -7.7340     1.3954   566.9719 O.3      182 DA      0.0000
   1410 C2'       -6.4613    -0.4896   567.5735 C.3      182 DA      0.0000
   1411 C1'       -5.6406     0.5919   568.3282 C.3      182 DA      0.0000
   1412 N9        -4.3119     0.0064   568.4736 N.ar     182 DA      0.0000
   1413 C8        -4.0121    -1.3356   568.5465 C.ar     182 DA      0.0000
   1414 N7        -2.7301    -1.5762   568.6611 N.ar     182 DA      0.0000
   1415 C5        -2.1524    -0.2940   568.6547 C.ar     182 DA      0.0000
   1416 C6        -0.7948     0.1170   568.7547 C.ar     182 DA      0.0000
   1417 N6         0.2311    -0.7302   568.8775 N.pl3    182 DA      0.0000
   1418 N1        -0.6111     1.4665   568.7195 N.ar     182 DA      0.0000
   1419 C2        -1.6520     2.3268   568.6006 C.ar     182 DA      0.0000
   1420 N3        -2.9470     2.0108   568.5092 N.ar     182 DA      0.0000
   1421 C4        -3.1157     0.6772   568.5367 C.ar     182 DA      0.0000
   1422 H5'       -9.2983    -0.8210   569.9759 H        182 DA      0.0000
   1423 H5''      -8.0557    -0.3881   571.1943 H        182 DA      0.0000
   1424 H4'       -8.3635     1.4301   569.4694 H        182 DA      0.0000
   1425 H3'       -8.6623    -0.4116   567.4914 H        182 DA      0.0000
   1426 H2'       -6.4221    -1.4666   568.0552 H        182 DA      0.0000
   1427 H2''      -6.1796    -0.5477   566.5222 H        182 DA      0.0000
   1428 H1'       -5.5891     1.5079   567.7398 H        182 DA      0.0000
   1429 H8        -4.7608    -2.1132   568.5124 H        182 DA      0.0000
   1430 H2        -1.4087     3.3787   568.5774 H        182 DA      0.0000
   1431 H61        0.0636    -1.7259   568.9022 H        182 DA      0.0000
   1432 H62        1.1741    -0.3750   568.9456 H        182 DA      0.0000
   1433 P         -8.8004     1.6830   565.8310 P.3      181 DC      0.0000
   1434 OP1       -9.9446     2.3087   566.6113 O.co2    181 DC      0.0000
   1435 OP2       -9.1940     0.4700   565.1054 O.co2    181 DC      0.0000
   1436 O5'       -7.9367     2.6860   564.8551 O.3      181 DC      0.0000
   1437 C5'       -7.3160     3.8495   565.5242 C.3      181 DC      0.0000
   1438 C4'       -5.9809     4.1149   564.8801 C.3      181 DC      0.0000
   1439 O4'       -4.8951     3.4529   565.5173 O.3      181 DC      0.0000
   1440 C3'       -5.9342     3.6905   563.4023 C.3      181 DC      0.0000
   1441 O3'       -5.1055     4.5136   562.5910 O.3      181 DC      0.0000
   1442 C2'       -5.2578     2.2903   563.5680 C.3      181 DC      0.0000
   1443 C1'       -4.1010     2.8687   564.4636 C.3      181 DC      0.0000
   1444 N1        -3.1751     1.7924   564.7014 N.am     181 DC      0.0000
   1445 C2        -1.8637     2.1074   565.0186 C.2      181 DC      0.0000
   1446 O2        -1.3288     3.2129   565.1591 O.2      181 DC      0.0000
   1447 N3        -0.9865     1.0774   565.2168 N.2      181 DC      0.0000
   1448 C4        -1.3674    -0.2311   565.1008 C.2      181 DC      0.0000
   1449 N4        -0.4736    -1.2088   565.3169 N.pl3    181 DC      0.0000
   1450 C5        -2.7163    -0.5387   564.7712 C.2      181 DC      0.0000
   1451 C6        -3.5554     0.4859   564.5795 C.2      181 DC      0.0000
   1452 H5'       -7.9580     4.7233   565.4127 H        181 DC      0.0000
   1453 H5''      -7.1751     3.6312   566.5828 H        181 DC      0.0000
   1454 H4'       -5.7934     5.1877   564.9269 H        181 DC      0.0000
   1455 H3'       -6.9364     3.6003   562.9833 H        181 DC      0.0000
   1456 H2'       -5.8849     1.5640   564.0851 H        181 DC      0.0000
   1457 H2''      -4.8842     1.9037   562.6197 H        181 DC      0.0000
   1458 H1'       -3.5915     3.6635   563.9186 H        181 DC      0.0000
   1459 H5        -3.0511    -1.5614   564.6791 H        181 DC      0.0000
   1460 H6        -4.5803     0.2701   564.3162 H        181 DC      0.0000
   1461 H41        0.4797    -0.9774   565.5574 H        181 DC      0.0000
   1462 H42       -0.7542    -2.1759   565.2390 H        181 DC      0.0000
   1463 P          9.9178    -1.4211   599.1902 P.3      191 DG      0.0000
   1464 OP1       11.1098    -2.3047   599.1886 O.co2    191 DG      0.0000
   1465 OP2        8.9529    -1.9805   600.2459 O.co2    191 DG      0.0000
   1466 O5'       10.1791     0.1382   599.3686 O.3      191 DG      0.0000
   1467 C5'       10.1818     1.1790   598.3686 C.3      191 DG      0.0000
   1468 C4'        9.3121     2.3141   598.8674 C.3      191 DG      0.0000
   1469 O4'        7.9713     2.1791   598.4482 O.3      191 DG      0.0000
   1470 C3'        9.2746     2.5753   600.3596 C.3      191 DG      0.0000
   1471 O3'        9.6061     3.9552   600.6716 O.3      191 DG      0.0000
   1472 C2'        7.8708     2.1850   600.7815 C.3      191 DG      0.0000
   1473 C1'        7.0562     2.3813   599.5258 C.3      191 DG      0.0000
   1474 N9         5.9343     1.4254   599.4968 N.ar     191 DG      0.0000
   1475 C8         5.9375     0.0697   599.7256 C.ar     191 DG      0.0000
   1476 N7         4.7533    -0.4924   599.6359 N.ar     191 DG      0.0000
   1477 C5         3.9070     0.5669   599.3189 C.ar     191 DG      0.0000
   1478 C6         2.5095     0.6235   599.0930 C.2      191 DG      0.0000
   1479 O6         1.6958    -0.3005   599.1143 O.2      191 DG      0.0000
   1480 N1         2.0150     1.8676   598.8115 N.am     191 DG      0.0000
   1481 C2         2.7584     2.9258   598.7508 C.2      191 DG      0.0000
   1482 N2         2.0549     3.9486   598.4541 N.pl3    191 DG      0.0000
   1483 N3         4.1405     2.9721   598.9596 N.2      191 DG      0.0000
   1484 C4         4.6179     1.7493   599.2322 C.ar     191 DG      0.0000
   1485 H5'       11.1994     1.5360   598.2099 H        191 DG      0.0000
   1486 H5''       9.7786     0.7909   597.4332 H        191 DG      0.0000
   1487 H4'        9.6924     3.2237   598.4027 H        191 DG      0.0000
   1488 H3'        9.9898     1.9176   600.8535 H        191 DG      0.0000
   1489 H2'        7.8375     1.1458   601.1085 H        191 DG      0.0000
   1490 H2''       7.5144     2.8443   601.5730 H        191 DG      0.0000
   1491 H1'        6.6709     3.4005   599.4939 H        191 DG      0.0000
   1492 H8         6.8347    -0.4845   599.9587 H        191 DG      0.0000
   1493 H1         1.0239     1.9650   598.6431 H        191 DG      0.0000
   1494 H21        1.0599     3.8526   598.3097 H        191 DG      0.0000
   1495 H22        2.4932     4.8540   598.3636 H        191 DG      0.0000
   1496 P          9.3738     4.5859   602.1001 P.3      192 DT      0.0000
   1497 OP1       10.4582     5.4984   602.6118 O.co2    192 DT      0.0000
   1498 OP2        9.4351     3.3521   603.0188 O.co2    192 DT      0.0000
   1499 O5'        7.9383     5.1702   602.1287 O.3      192 DT      0.0000
   1500 C5'        7.6551     6.5892   601.9847 C.3      192 DT      0.0000
   1501 C4'        6.1448     6.6847   602.0422 C.3      192 DT      0.0000
   1502 O4'        5.5217     5.4494   601.7671 O.3      192 DT      0.0000
   1503 C3'        5.5505     7.1285   603.3549 C.3      192 DT      0.0000
   1504 O3'        4.9088     8.3984   603.1667 O.3      192 DT      0.0000
   1505 C2'        4.5469     6.0444   603.7472 C.3      192 DT      0.0000
   1506 C1'        4.2065     5.4752   602.3944 C.3      192 DT      0.0000
   1507 N1         3.7415     4.0914   602.4911 N.am     192 DT      0.0000
   1508 C2         2.4074     3.8595   602.2931 C.2      192 DT      0.0000
   1509 O2         1.6088     4.7626   602.0550 O.2      192 DT      0.0000
   1510 N3         1.9815     2.5610   602.3742 N.am     192 DT      0.0000
   1511 C4         2.8162     1.5283   602.6301 C.2      192 DT      0.0000
   1512 O4         2.2790     0.3908   602.6754 O.2      192 DT      0.0000
   1513 C5         4.2098     1.7900   602.8298 C.2      192 DT      0.0000
   1514 C7         5.1662     0.6767   603.1097 C.3      192 DT      0.0000
   1515 C6         4.6174     3.0630   602.7483 C.2      192 DT      0.0000
   1516 H5'        8.1077     7.1563   602.7981 H        192 DT      0.0000
   1517 H5''       8.0199     6.9513   601.0235 H        192 DT      0.0000
   1518 H4'        5.8278     7.3940   601.2777 H        192 DT      0.0000
   1519 H3'        6.3304     7.2102   604.1120 H        192 DT      0.0000
   1520 H2'        4.9993     5.2944   604.3960 H        192 DT      0.0000
   1521 H2''       3.6661     6.4827   604.2164 H        192 DT      0.0000
   1522 H1'        3.5047     6.1062   601.8491 H        192 DT      0.0000
   1523 H3         1.0002     2.3656   602.2367 H        192 DT      0.0000
   1524 H6         5.6643     3.2885   602.8887 H        192 DT      0.0000
   1525 H71        5.7252     0.4409   602.2042 H        192 DT      0.0000
   1526 H72        4.6127    -0.2043   603.4345 H        192 DT      0.0000
   1527 H73        5.8582     0.9810   603.8950 H        192 DT      0.0000
   1528 P          5.0704     9.3891   604.4467 P.3      193 DG      0.0000
   1529 OP1        5.2095    10.7271   603.7316 O.co2    193 DG      0.0000
   1530 OP2        6.2477     8.9963   605.2002 O.co2    193 DG      0.0000
   1531 O5'        3.5817     9.1124   605.0562 O.3      193 DG      0.0000
   1532 C5'        2.5868     9.1770   603.9656 C.3      193 DG      0.0000
   1533 C4'        1.3039     8.5986   604.4856 C.3      193 DG      0.0000
   1534 O4'        1.1196     7.2199   604.3051 O.3      193 DG      0.0000
   1535 C3'        1.0955     8.8811   605.9937 C.3      193 DG      0.0000
   1536 O3'       -0.1947     9.5194   606.1525 O.3      193 DG      0.0000
   1537 C2'        1.2606     7.5252   606.6463 C.3      193 DG      0.0000
   1538 C1'        0.7272     6.5930   605.5647 C.3      193 DG      0.0000
   1539 N9         1.2406     5.2292   605.7342 N.ar     193 DG      0.0000
   1540 C8         2.5035     4.8260   606.0704 C.ar     193 DG      0.0000
   1541 N7         2.6584     3.5231   606.1562 N.ar     193 DG      0.0000
   1542 C5         1.3954     3.0366   605.8262 C.ar     193 DG      0.0000
   1543 C6         0.9068     1.7022   605.7318 C.2      193 DG      0.0000
   1544 O6         1.5250     0.6446   605.9241 O.2      193 DG      0.0000
   1545 N1        -0.4245     1.6064   605.3968 N.am     193 DG      0.0000
   1546 C2        -1.1922     2.7084   605.1730 C.2      193 DG      0.0000
   1547 N2        -2.4645     2.4254   604.8642 N.pl3    193 DG      0.0000
   1548 N3        -0.7822     3.9728   605.2440 N.2      193 DG      0.0000
   1549 C4         0.5181     4.0686   605.5706 C.ar     193 DG      0.0000
   1550 H5'        2.4321    10.2133   603.6651 H        193 DG      0.0000
   1551 H5''       2.9355     8.5940   603.1132 H        193 DG      0.0000
   1552 H4'        0.4934     9.0983   603.9551 H        193 DG      0.0000
   1553 H3'        1.8779     9.5520   606.3484 H        193 DG      0.0000
   1554 H2'        2.3069     7.3168   606.8692 H        193 DG      0.0000
   1555 H2''       0.6532     7.4555   607.5487 H        193 DG      0.0000
   1556 H1'       -0.3610     6.5703   605.6236 H        193 DG      0.0000
   1557 H8         3.3093     5.5222   606.2511 H        193 DG      0.0000
   1558 H1        -0.8445     0.6916   605.3144 H        193 DG      0.0000
   1559 H21       -2.7702     1.4641   604.8140 H        193 DG      0.0000
   1560 H22       -3.1182     3.1734   604.6815 H        193 DG      0.0000
   1561 P         -0.6803    10.0488   607.5410 P.3      194 DA      0.0000
   1562 OP1       -0.3070    11.4515   607.8963 O.co2    194 DA      0.0000
   1563 OP2        0.1836     9.0870   608.4367 O.co2    194 DA      0.0000
   1564 O5'       -2.1703     9.5666   607.7901 O.3      194 DA      0.0000
   1565 C5'       -3.1008     9.1991   606.7610 C.3      194 DA      0.0000
   1566 C4'       -3.7303     7.8993   607.2354 C.3      194 DA      0.0000
   1567 O4'       -2.8005     6.8411   607.1450 O.3      194 DA      0.0000
   1568 C3'       -4.2733     7.8926   608.6644 C.3      194 DA      0.0000
   1569 O3'       -5.5975     7.3228   608.7167 O.3      194 DA      0.0000
   1570 C2'       -3.2274     7.0458   609.3998 C.3      194 DA      0.0000
   1571 C1'       -2.9553     6.0072   608.3223 C.3      194 DA      0.0000
   1572 N9        -1.7373     5.2234   608.5507 N.ar     194 DA      0.0000
   1573 C8        -0.4537     5.6382   608.7664 C.ar     194 DA      0.0000
   1574 N7         0.4032     4.6552   608.9314 N.ar     194 DA      0.0000
   1575 C5        -0.3703     3.5127   608.7912 C.ar     194 DA      0.0000
   1576 C6        -0.0326     2.1424   608.8392 C.ar     194 DA      0.0000
   1577 N6         1.1988     1.6756   609.0589 N.pl3    194 DA      0.0000
   1578 N1        -1.0742     1.2789   608.6493 N.ar     194 DA      0.0000
   1579 C2        -2.3308     1.7310   608.4316 C.ar     194 DA      0.0000
   1580 N3        -2.7221     3.0034   608.3733 N.ar     194 DA      0.0000
   1581 C4        -1.6843     3.8391   608.5602 C.ar     194 DA      0.0000
   1582 H5'       -2.5827     9.0490   605.8138 H        194 DA      0.0000
   1583 H5''      -3.8649     9.9690   606.6532 H        194 DA      0.0000
   1584 H4'       -4.5590     7.6695   606.5656 H        194 DA      0.0000
   1585 H3'       -4.2850     8.9059   609.0658 H        194 DA      0.0000
   1586 H2'       -2.3353     7.6221   609.6453 H        194 DA      0.0000
   1587 H2''      -3.6530     6.5841   610.2907 H        194 DA      0.0000
   1588 H1'       -3.8147     5.3465   608.2077 H        194 DA      0.0000
   1589 H8        -0.1689     6.6794   608.7985 H        194 DA      0.0000
   1590 H2        -3.0965     0.9825   608.2902 H        194 DA      0.0000
   1591 H61        2.0478     2.2139   608.9615 H        194 DA      0.0000
   1592 H62        1.3777     0.6965   608.8874 H        194 DA      0.0000
   1593 P         -6.6964     7.7561   609.8581 P.3      195 DA      0.0000
   1594 OP1       -7.9026     8.3690   609.1911 O.co2    195 DA      0.0000
   1595 OP2       -5.8955     8.6780   610.6891 O.co2    195 DA      0.0000
   1596 O5'       -7.2161     6.3443   610.3890 O.3      195 DA      0.0000
   1597 C5'       -7.8780     5.3864   609.5646 C.3      195 DA      0.0000
   1598 C4'       -7.5405     4.0009   610.0869 C.3      195 DA      0.0000
   1599 O4'       -6.1568     3.7921   610.1151 O.3      195 DA      0.0000
   1600 C3'       -8.0797     3.6178   611.4543 C.3      195 DA      0.0000
   1601 O3'       -8.9968     2.5267   611.3764 O.3      195 DA      0.0000
   1602 C2'       -6.8172     3.3503   612.2830 C.3      195 DA      0.0000
   1603 C1'       -5.7778     3.0033   611.2892 C.3      195 DA      0.0000
   1604 N9        -4.3595     3.3032   611.5572 N.ar     195 DA      0.0000
   1605 C8        -3.7188     4.5130   611.6724 C.ar     195 DA      0.0000
   1606 N7        -2.4212     4.4192   611.8417 N.ar     195 DA      0.0000
   1607 C5        -2.1802     3.0496   611.8047 C.ar     195 DA      0.0000
   1608 C6        -0.9783     2.2952   611.9252 C.ar     195 DA      0.0000
   1609 N6         0.2332     2.8020   612.1168 N.pl3    195 DA      0.0000
   1610 N1        -1.1207     0.9337   611.8270 N.ar     195 DA      0.0000
   1611 C2        -2.3515     0.3755   611.6379 C.ar     195 DA      0.0000
   1612 N3        -3.5087     1.0184   611.5301 N.ar     195 DA      0.0000
   1613 C4        -3.3531     2.3545   611.6219 C.ar     195 DA      0.0000
   1614 H5'       -7.5356     5.4862   608.5346 H        195 DA      0.0000
   1615 H5''      -8.9555     5.5440   609.6106 H        195 DA      0.0000
   1616 H4'       -7.9525     3.2865   609.3742 H        195 DA      0.0000
   1617 H3'       -8.5978     4.4783   611.8775 H        195 DA      0.0000
   1618 H2'       -6.5304     4.2402   612.8433 H        195 DA      0.0000
   1619 H2''      -6.9827     2.5144   612.9626 H        195 DA      0.0000
   1620 H1'       -5.8699     1.9455   611.0431 H        195 DA      0.0000
   1621 H8        -4.2381     5.4589   611.6276 H        195 DA      0.0000
   1622 H2        -2.3885    -0.7016   611.5687 H        195 DA      0.0000
   1623 H61        0.3767     3.7471   612.4430 H        195 DA      0.0000
   1624 H62        1.0393     2.2228   611.9300 H        195 DA      0.0000
   1625 P        -10.2946     2.3129   612.3326 P.3      196 DT      0.0000
   1626 OP1      -11.5050     1.8403   611.5353 O.co2    196 DT      0.0000
   1627 OP2      -10.5239     3.4836   613.1532 O.co2    196 DT      0.0000
   1628 O5'       -9.8821     0.9444   613.1464 O.3      196 DT      0.0000
   1629 C5'       -9.2240    -0.0034   612.2013 C.3      196 DT      0.0000
   1630 C4'       -8.0736    -0.5771   612.9890 C.3      196 DT      0.0000
   1631 O4'       -7.0108     0.3293   613.1810 O.3      196 DT      0.0000
   1632 C3'       -8.4960    -1.0085   614.4056 C.3      196 DT      0.0000
   1633 O3'       -8.7436    -2.4023   614.4072 O.3      196 DT      0.0000
   1634 C2'       -7.3452    -0.5600   615.3028 C.3      196 DT      0.0000
   1635 C1'       -6.2693    -0.2564   614.3382 C.3      196 DT      0.0000
   1636 N1        -5.2155     0.6864   614.6780 N.am     196 DT      0.0000
   1637 C2        -3.9308     0.1701   614.8159 C.2      196 DT      0.0000
   1638 O2        -3.7472    -1.0371   614.7279 O.2      196 DT      0.0000
   1639 N3        -2.9119     1.0378   615.0699 N.am     196 DT      0.0000
   1640 C4        -3.1025     2.3846   615.1900 C.2      196 DT      0.0000
   1641 O4        -2.1016     3.1276   615.4452 O.2      196 DT      0.0000
   1642 C5        -4.4310     2.8961   615.0185 C.2      196 DT      0.0000
   1643 C7        -4.6919     4.3743   615.1060 C.3      196 DT      0.0000
   1644 C6        -5.4320     2.0362   614.7627 C.2      196 DT      0.0000
   1645 H5'       -9.9156    -0.7901   611.8996 H        196 DT      0.0000
   1646 H5''      -8.8540     0.5309   611.3262 H        196 DT      0.0000
   1647 H4'       -7.6928    -1.4507   612.4598 H        196 DT      0.0000
   1648 H3'       -9.4051    -0.4785   614.6899 H        196 DT      0.0000
   1649 H2'       -7.6182     0.3258   615.8762 H        196 DT      0.0000
   1650 H2''      -7.0434    -1.3680   615.9692 H        196 DT      0.0000
   1651 H1'       -5.8106    -1.1929   614.0209 H        196 DT      0.0000
   1652 H3        -1.9770     0.6699   615.1736 H        196 DT      0.0000
   1653 H6        -6.4318     2.4191   614.6205 H        196 DT      0.0000
   1654 H71       -3.7592     4.8964   615.3190 H        196 DT      0.0000
   1655 H72       -5.0977     4.7280   614.1582 H        196 DT      0.0000
   1656 H73       -5.4084     4.5702   615.9038 H        196 DT      0.0000
   1657 P         -9.3884    -3.2794   615.5139 P.3      197 DT      0.0000
   1658 OP1       -9.9700    -4.5800   614.9018 O.co2    197 DT      0.0000
   1659 OP2      -10.4446    -2.4459   616.1438 O.co2    197 DT      0.0000
   1660 O5'       -8.1494    -3.7876   616.3962 O.3      197 DT      0.0000
   1661 C5'       -7.3177    -4.7428   615.6844 C.3      197 DT      0.0000
   1662 C4'       -5.9929    -4.8195   616.3606 C.3      197 DT      0.0000
   1663 O4'       -5.2646    -3.5982   616.3372 O.3      197 DT      0.0000
   1664 C3'       -6.0546    -5.2698   617.8272 C.3      197 DT      0.0000
   1665 O3'       -5.0358    -6.2156   618.0912 O.3      197 DT      0.0000
   1666 C2'       -5.7429    -3.9452   618.5635 C.3      197 DT      0.0000
   1667 C1'       -4.6213    -3.4749   617.6600 C.3      197 DT      0.0000
   1668 N1        -4.2507    -2.1038   617.9577 N.am     197 DT      0.0000
   1669 C2        -2.9047    -1.7801   618.0125 C.2      197 DT      0.0000
   1670 O2        -2.0702    -2.6664   617.8241 O.2      197 DT      0.0000
   1671 N3        -2.5619    -0.4843   618.2784 N.am     197 DT      0.0000
   1672 C4        -3.4947     0.4852   618.4854 C.2      197 DT      0.0000
   1673 O4        -3.1026     1.6662   618.7087 O.2      197 DT      0.0000
   1674 C5        -4.8765     0.1415   618.4203 C.2      197 DT      0.0000
   1675 C7        -5.9639     1.1545   618.6303 C.3      197 DT      0.0000
   1676 C6        -5.1953    -1.1357   618.1592 C.2      197 DT      0.0000
   1677 H5'       -7.7930    -5.7236   615.6968 H        197 DT      0.0000
   1678 H5''      -7.1837    -4.4144   614.6537 H        197 DT      0.0000
   1679 H4'       -5.3993    -5.5583   615.8221 H        197 DT      0.0000
   1680 H3'       -7.0400    -5.6549   618.0896 H        197 DT      0.0000
   1681 H2'       -6.5911    -3.2606   618.5623 H        197 DT      0.0000
   1682 H2''      -5.3846    -4.1299   619.5763 H        197 DT      0.0000
   1683 H1'       -3.7581    -4.1361   617.7356 H        197 DT      0.0000
   1684 H3        -1.5835    -0.2376   618.3228 H        197 DT      0.0000
   1685 H6        -6.2386    -1.4098   618.1061 H        197 DT      0.0000
   1686 H71       -5.5194     2.1297   618.8292 H        197 DT      0.0000
   1687 H72       -6.5829     1.2135   617.7350 H        197 DT      0.0000
   1688 H73       -6.5797     0.8561   619.4787 H        197 DT      0.0000
   1689 P         -4.9586    -7.6604   618.6992 P.3      198 DC      0.0000
   1690 OP1       -4.6600    -8.6950   617.6313 O.co2    198 DC      0.0000
   1691 OP2       -6.2237    -7.8422   619.4342 O.co2    198 DC      0.0000
   1692 O5'       -3.5703    -7.4358   619.5252 O.3      198 DC      0.0000
   1693 C5'       -2.6404    -6.9205   618.5030 C.3      198 DC      0.0000
   1694 C4'       -1.3447    -6.6159   619.1995 C.3      198 DC      0.0000
   1695 O4'       -1.1751    -5.2545   619.4464 O.3      198 DC      0.0000
   1696 C3'       -1.1066    -7.3903   620.4909 C.3      198 DC      0.0000
   1697 O3'        0.1113    -8.1190   620.4112 O.3      198 DC      0.0000
   1698 C2'       -1.2201    -6.2817   621.5397 C.3      198 DC      0.0000
   1699 C1'       -0.7735    -5.0577   620.8433 C.3      198 DC      0.0000
   1700 N1        -1.4676    -3.8095   621.1754 N.am     198 DC      0.0000
   1701 C2        -0.6521    -2.7093   621.4312 C.2      198 DC      0.0000
   1702 O2         0.5788    -2.8088   621.4357 O.2      198 DC      0.0000
   1703 N3        -1.2698    -1.5141   621.7050 N.2      198 DC      0.0000
   1704 C4        -2.6286    -1.3960   621.6951 C.2      198 DC      0.0000
   1705 N4        -3.1315    -0.1980   621.9719 N.pl3    198 DC      0.0000
   1706 C5        -3.4423    -2.5163   621.4171 C.2      198 DC      0.0000
   1707 C6        -2.8205    -3.6837   621.1523 C.2      198 DC      0.0000
   1708 H5'       -2.4814    -7.6718   617.7293 H        198 DC      0.0000
   1709 H5''      -3.0450    -6.0111   618.0587 H        198 DC      0.0000
   1710 H4'       -0.5493    -6.9070   618.5135 H        198 DC      0.0000
   1711 H3'       -1.9269    -8.0935   620.6342 H        198 DC      0.0000
   1712 H2'       -2.2510    -6.1769   621.8776 H        198 DC      0.0000
   1713 H2''      -0.5659    -6.4943   622.3852 H        198 DC      0.0000
   1714 H1'        0.3067    -4.9358   620.9242 H        198 DC      0.0000
   1715 H5        -4.5197    -2.4414   621.4165 H        198 DC      0.0000
   1716 H6        -3.4196    -4.5499   620.9133 H        198 DC      0.0000
   1717 H41       -2.5133     0.5755   622.1712 H        198 DC      0.0000
   1718 H42       -4.1320    -0.0606   621.9833 H        198 DC      0.0000
   1719 P          0.5555    -9.3558   621.3633 P.3      199 DA      0.0000
   1720 OP1        1.5377   -10.1957   620.5695 O.co2    199 DA      0.0000
   1721 OP2       -0.6610   -10.1192   621.7088 O.co2    199 DA      0.0000
   1722 O5'        1.2576    -8.6258   622.6603 O.3      199 DA      0.0000
   1723 C5'        2.3172    -7.6651   622.3651 C.3      199 DA      0.0000
   1724 C4'        2.7920    -7.0096   623.6203 C.3      199 DA      0.0000
   1725 O4'        2.2591    -5.7041   623.8625 O.3      199 DA      0.0000
   1726 C3'        2.4492    -7.7471   624.9256 C.3      199 DA      0.0000
   1727 O3'        3.3235    -7.2803   625.9555 O.3      199 DA      0.0000
   1728 C2'        1.0159    -7.2209   625.1402 C.3      199 DA      0.0000
   1729 C1'        1.3461    -5.7357   624.9569 C.3      199 DA      0.0000
   1730 N9         0.1093    -4.9787   624.8626 N.ar     199 DA      0.0000
   1731 C8        -1.1863    -5.4004   624.7467 C.ar     199 DA      0.0000
   1732 N7        -2.0877    -4.4349   624.7281 N.ar     199 DA      0.0000
   1733 C5        -1.3202    -3.2837   624.8357 C.ar     199 DA      0.0000
   1734 C6        -1.6681    -1.9108   624.8702 C.ar     199 DA      0.0000
   1735 N6        -2.9025    -1.4485   624.7849 N.pl3    199 DA      0.0000
   1736 N1        -0.6322    -1.0311   625.0028 N.ar     199 DA      0.0000
   1737 C2         0.6637    -1.4667   625.0830 C.ar     199 DA      0.0000
   1738 N3         1.0681    -2.7344   625.0531 N.ar     199 DA      0.0000
   1739 C4         0.0268    -3.5936   624.9301 C.ar     199 DA      0.0000
   1740 H5'        3.1516    -8.1846   621.8939 H        199 DA      0.0000
   1741 H5''       1.9351    -6.9048   621.6838 H        199 DA      0.0000
   1742 H4'        3.8768    -6.9218   623.5615 H        199 DA      0.0000
   1743 H3'        2.4817    -8.8306   624.8119 H        199 DA      0.0000
   1744 H2'        0.3174    -7.5903   624.3894 H        199 DA      0.0000
   1745 H2''       0.6622    -7.4287   626.1501 H        199 DA      0.0000
   1746 H1'        1.8779    -5.3986   625.8465 H        199 DA      0.0000
   1747 H8        -1.4528    -6.4446   624.6758 H        199 DA      0.0000
   1748 H2         1.4291    -0.7109   625.1794 H        199 DA      0.0000
   1749 H61       -3.3322    -0.5524   624.9650 H        199 DA      0.0000
   1750 H62       -3.5626    -2.1452   624.4702 H        199 DA      0.0000
   1751 P          4.8178    -7.8352   626.0960 P.3      200 DC      0.0000
   1752 OP1        5.3252    -8.4782   624.8509 O.co2    200 DC      0.0000
   1753 OP2        4.6915    -8.8007   627.2389 O.co2    200 DC      0.0000
   1754 O5'        5.6674    -6.5266   626.3791 O.3      200 DC      0.0000
   1755 C5'        6.0997    -5.6543   625.2914 C.3      200 DC      0.0000
   1756 C4'        6.1676    -4.2949   625.9964 C.3      200 DC      0.0000
   1757 O4'        4.8468    -3.9170   626.3084 O.3      200 DC      0.0000
   1758 C3'        6.9509    -4.3191   627.3063 C.3      200 DC      0.0000
   1759 O3'        7.9657    -3.2919   627.3742 O.3      200 DC      0.0000
   1760 C2'        5.8699    -4.1775   628.3885 C.3      200 DC      0.0000
   1761 C1'        4.8457    -3.3594   627.7123 C.3      200 DC      0.0000
   1762 N1         3.4321    -3.4626   628.0651 N.am     200 DC      0.0000
   1763 C2         2.7259    -2.2614   628.0382 C.2      200 DC      0.0000
   1764 O2         3.2651    -1.1816   627.8313 O.2      200 DC      0.0000
   1765 N3         1.3907    -2.3158   628.2914 N.2      200 DC      0.0000
   1766 C4         0.7412    -3.4819   628.5247 C.2      200 DC      0.0000
   1767 N4        -0.5682    -3.4068   628.7556 N.pl3    200 DC      0.0000
   1768 C5         1.4705    -4.7026   628.5313 C.2      200 DC      0.0000
   1769 C6         2.7877    -4.6411   628.2818 C.2      200 DC      0.0000
   1770 H5'        7.0751    -5.9520   624.9066 H        200 DC      0.0000
   1771 H5''       5.3584    -5.6379   624.4924 H        200 DC      0.0000
   1772 H4'        6.6070    -3.5583   625.3237 H        200 DC      0.0000
   1773 H3'        7.4288    -5.2930   627.4122 H        200 DC      0.0000
   1774 H2'        5.4703    -5.1502   628.6755 H        200 DC      0.0000
   1775 H2''       6.2653    -3.6538   629.2587 H        200 DC      0.0000
   1776 H1'        5.1521    -2.3134   627.6990 H        200 DC      0.0000
   1777 H5         0.9820    -5.6452   628.7298 H        200 DC      0.0000
   1778 H6         3.3560    -5.5590   628.2521 H        200 DC      0.0000
   1779 H41       -1.0323    -2.5099   628.7446 H        200 DC      0.0000
   1780 H42       -1.0971    -4.2469   628.9418 H        200 DC      0.0000
   1781 P         -7.2264     4.4527   630.3337 P.3      200 DG      0.0000
   1782 OP1       -8.5244     5.1739   630.5125 O.co2    200 DG      0.0000
   1783 OP2       -7.2817     3.3852   629.2489 O.co2    200 DG      0.0000
   1784 O5'       -6.0167     5.5495   630.1265 O.3      200 DG      0.0000
   1785 C5'       -5.0716     5.7859   631.2222 C.3      200 DG      0.0000
   1786 C4'       -3.6971     5.9860   630.5880 C.3      200 DG      0.0000
   1787 O4'       -2.9829     4.7839   630.4921 O.3      200 DG      0.0000
   1788 C3'       -3.7306     6.5785   629.1816 C.3      200 DG      0.0000
   1789 O3'       -2.6859     7.5425   628.9146 O.3      200 DG      0.0000
   1790 C2'       -3.5976     5.3384   628.2793 C.3      200 DG      0.0000
   1791 C1'       -2.6447     4.4884   629.1031 C.3      200 DG      0.0000
   1792 N9        -2.8417     3.0546   628.8298 N.ar     200 DG      0.0000
   1793 C8        -4.0288     2.3794   628.6732 C.ar     200 DG      0.0000
   1794 N7        -3.8867     1.0991   628.4548 N.ar     200 DG      0.0000
   1795 C5        -2.5097     0.9117   628.4796 C.ar     200 DG      0.0000
   1796 C6        -1.7197    -0.2584   628.3231 C.2      200 DG      0.0000
   1797 O6        -2.1334    -1.4098   628.1263 O.2      200 DG      0.0000
   1798 N1        -0.3664    -0.0424   628.4100 N.am     200 DG      0.0000
   1799 C2         0.1663     1.1845   628.6307 C.2      200 DG      0.0000
   1800 N2         1.4938     1.2400   628.6940 N.pl3    200 DG      0.0000
   1801 N3        -0.5313     2.3160   628.7884 N.2      200 DG      0.0000
   1802 C4        -1.8589     2.1034   628.7051 C.ar     200 DG      0.0000
   1803 H5'       -5.3600     6.6768   631.7800 H        200 DG      0.0000
   1804 H5''      -5.0511     4.9225   631.8872 H        200 DG      0.0000
   1805 H4'       -3.1290     6.6643   631.2247 H        200 DG      0.0000
   1806 H3'       -4.7012     7.0443   629.0111 H        200 DG      0.0000
   1807 H2'       -4.5572     4.8415   628.1366 H        200 DG      0.0000
   1808 H2''      -3.1515     5.6026   627.3206 H        200 DG      0.0000
   1809 H1'       -1.6126     4.7728   628.8979 H        200 DG      0.0000
   1810 H8        -4.9926     2.8638   628.7259 H        200 DG      0.0000
   1811 H1         0.2574    -0.8296   628.3052 H        200 DG      0.0000
   1812 H21        2.0406     0.3986   628.5790 H        200 DG      0.0000
   1813 H22        1.9551     2.1236   628.8572 H        200 DG      0.0000
   1814 P         -2.1969     7.6312   627.3911 P.3      199 DT      0.0000
   1815 OP1       -1.6724     8.9866   627.0002 O.co2    199 DT      0.0000
   1816 OP2       -3.4682     7.3244   626.6906 O.co2    199 DT      0.0000
   1817 O5'       -1.0367     6.5340   627.2602 O.3      199 DT      0.0000
   1818 C5'        0.3298     6.9844   627.5279 C.3      199 DT      0.0000
   1819 C4'        1.2857     6.0882   626.7708 C.3      199 DT      0.0000
   1820 O4'        0.8690     4.7348   626.7435 O.3      199 DT      0.0000
   1821 C3'        1.4600     6.4963   625.3161 C.3      199 DT      0.0000
   1822 O3'        2.8084     6.3479   624.8210 O.3      199 DT      0.0000
   1823 C2'        0.4911     5.5870   624.5933 C.3      199 DT      0.0000
   1824 C1'        0.7285     4.3034   625.3714 C.3      199 DT      0.0000
   1825 N1        -0.4853     3.4856   625.2201 N.am     199 DT      0.0000
   1826 C2        -0.3160     2.1089   625.3268 C.2      199 DT      0.0000
   1827 O2         0.7980     1.6325   625.5166 O.2      199 DT      0.0000
   1828 N3        -1.4339     1.3315   625.2067 N.am     199 DT      0.0000
   1829 C4        -2.6666     1.8701   624.9891 C.2      199 DT      0.0000
   1830 O4        -3.6504     1.0642   624.8915 O.2      199 DT      0.0000
   1831 C5        -2.8084     3.2832   624.8827 C.2      199 DT      0.0000
   1832 C7        -4.1637     3.8883   624.6538 C.3      199 DT      0.0000
   1833 C6        -1.7132     4.0376   625.0045 C.2      199 DT      0.0000
   1834 H5'        0.4495     8.0151   627.1941 H        199 DT      0.0000
   1835 H5''       0.5347     6.9191   628.5965 H        199 DT      0.0000
   1836 H4'        2.2592     6.1368   627.2588 H        199 DT      0.0000
   1837 H3'        1.1428     7.5317   625.1921 H        199 DT      0.0000
   1838 H2'       -0.5382     5.9340   624.6848 H        199 DT      0.0000
   1839 H2''       0.7724     5.4681   623.5469 H        199 DT      0.0000
   1840 H1'        1.6163     3.7771   625.0207 H        199 DT      0.0000
   1841 H3        -1.3436     0.3283   625.2813 H        199 DT      0.0000
   1842 H6        -1.8023     5.1114   624.9303 H        199 DT      0.0000
   1843 H71       -4.9091     3.0959   624.5851 H        199 DT      0.0000
   1844 H72       -4.4115     4.5488   625.4846 H        199 DT      0.0000
   1845 H73       -4.1544     4.4598   623.7256 H        199 DT      0.0000
   1846 P          3.2011     7.7602   624.0426 P.3      198 DG      0.0000
   1847 OP1        3.9195     8.7385   624.9139 O.co2    198 DG      0.0000
   1848 OP2        1.8346     8.1739   623.6371 O.co2    198 DG      0.0000
   1849 O5'        4.2453     7.2158   622.9618 O.3      198 DG      0.0000
   1850 C5'        5.6006     6.9215   623.3853 C.3      198 DG      0.0000
   1851 C4'        5.8453     5.4860   622.9375 C.3      198 DG      0.0000
   1852 O4'        4.7005     4.7022   623.2082 O.3      198 DG      0.0000
   1853 C3'        6.1629     5.3350   621.4498 C.3      198 DG      0.0000
   1854 O3'        7.3960     4.6702   621.2413 O.3      198 DG      0.0000
   1855 C2'        4.9409     4.6425   620.8731 C.3      198 DG      0.0000
   1856 C1'        4.3982     3.8809   622.0592 C.3      198 DG      0.0000
   1857 N9         2.9518     3.6806   621.9357 N.ar     198 DG      0.0000
   1858 C8         1.9757     4.6231   621.7768 C.ar     198 DG      0.0000
   1859 N7         0.7667     4.1226   621.6988 N.ar     198 DG      0.0000
   1860 C5         0.9591     2.7510   621.8363 C.ar     198 DG      0.0000
   1861 C6         0.0469     1.6629   621.8457 C.2      198 DG      0.0000
   1862 O6        -1.1746     1.7196   621.7467 O.2      198 DG      0.0000
   1863 N1         0.6278     0.4356   621.9947 N.am     198 DG      0.0000
   1864 C2         1.9866     0.2822   622.1276 C.2      198 DG      0.0000
   1865 N2         2.4207    -0.9712   622.2632 N.pl3    198 DG      0.0000
   1866 N3         2.8976     1.2606   622.1319 N.2      198 DG      0.0000
   1867 C4         2.3073     2.4708   621.9812 C.ar     198 DG      0.0000
   1868 H5'        6.3080     7.5987   622.9065 H        198 DG      0.0000
   1869 H5''       5.6815     6.9971   624.4696 H        198 DG      0.0000
   1870 H4'        6.6810     5.0842   623.5105 H        198 DG      0.0000
   1871 H3'        6.2316     6.3305   621.0112 H        198 DG      0.0000
   1872 H2'        4.2147     5.3680   620.5067 H        198 DG      0.0000
   1873 H2''       5.2303     3.9558   620.0775 H        198 DG      0.0000
   1874 H1'        4.9018     2.9181   622.1463 H        198 DG      0.0000
   1875 H8         2.1809     5.6819   621.7207 H        198 DG      0.0000
   1876 H1         0.0396    -0.3853   622.0076 H        198 DG      0.0000
   1877 H21        1.7617    -1.7365   622.2642 H        198 DG      0.0000
   1878 H22        3.4085    -1.1553   622.3650 H        198 DG      0.0000
   1879 P          7.8693     3.4363   620.3750 P.3      197 DA      0.0000
   1880 OP1        8.8945     2.6047   621.1564 O.co2    197 DA      0.0000
   1881 OP2        8.4868     4.0205   619.1823 O.co2    197 DA      0.0000
   1882 O5'        6.5649     2.4761   620.2002 O.3      197 DA      0.0000
   1883 C5'        6.3955     1.5732   621.3567 C.3      197 DA      0.0000
   1884 C4'        6.5354     0.1668   620.8288 C.3      197 DA      0.0000
   1885 O4'        5.2928    -0.4502   620.6066 O.3      197 DA      0.0000
   1886 C3'        7.2665     0.1035   619.4884 C.3      197 DA      0.0000
   1887 O3'        8.1652    -0.9772   619.4132 O.3      197 DA      0.0000
   1888 C2'        6.1218     0.1404   618.4918 C.3      197 DA      0.0000
   1889 C1'        4.9101    -0.3768   619.2156 C.3      197 DA      0.0000
   1890 N9         3.7345     0.4813   618.9901 N.ar     197 DA      0.0000
   1891 C8         3.6810     1.8458   618.8038 C.ar     197 DA      0.0000
   1892 N7         2.4717     2.3186   618.6079 N.ar     197 DA      0.0000
   1893 C5         1.6701     1.1872   618.6947 C.ar     197 DA      0.0000
   1894 C6         0.2692     1.0227   618.5891 C.ar     197 DA      0.0000
   1895 N6        -0.5742     2.0175   618.3766 N.pl3    197 DA      0.0000
   1896 N1        -0.1950    -0.2514   618.7128 N.ar     197 DA      0.0000
   1897 C2         0.6530    -1.2983   618.9373 C.ar     197 DA      0.0000
   1898 N3         1.9765    -1.2113   619.0532 N.ar     197 DA      0.0000
   1899 C4         2.4259     0.0598   618.9171 C.ar     197 DA      0.0000
   1900 H5'        7.1628     1.7722   622.1047 H        197 DA      0.0000
   1901 H5''       5.4061     1.7097   621.7933 H        197 DA      0.0000
   1902 H4'        7.0918    -0.4240   621.5565 H        197 DA      0.0000
   1903 H3'        7.8391     1.0241   619.3752 H        197 DA      0.0000
   1904 H2'        6.3479    -0.4941   617.6349 H        197 DA      0.0000
   1905 H2''       5.9490     1.1646   618.1612 H        197 DA      0.0000
   1906 H1'        4.6874    -1.3818   618.8574 H        197 DA      0.0000
   1907 H8         4.5598     2.4734   618.8177 H        197 DA      0.0000
   1908 H2         0.2125    -2.2802   619.0286 H        197 DA      0.0000
   1909 H61       -1.5324     1.9665   618.6920 H        197 DA      0.0000
   1910 H62       -0.2551     2.8432   617.8904 H        197 DA      0.0000
   1911 P          8.5224    -1.9600   618.2286 P.3      196 DA      0.0000
   1912 OP1        9.3796    -3.1508   618.7485 O.co2    196 DA      0.0000
   1913 OP2        9.3512    -1.1355   617.2949 O.co2    196 DA      0.0000
   1914 O5'        7.1739    -2.6010   617.7259 O.3      196 DA      0.0000
   1915 C5'        6.7859    -3.9136   618.1817 C.3      196 DA      0.0000
   1916 C4'        5.4909    -4.2601   617.4798 C.3      196 DA      0.0000
   1917 O4'        4.5975    -3.1901   617.3590 O.3      196 DA      0.0000
   1918 C3'        5.6918    -4.8199   616.0723 C.3      196 DA      0.0000
   1919 O3'        5.2751    -6.1981   616.0408 O.3      196 DA      0.0000
   1920 C2'        4.9639    -3.8194   615.1727 C.3      196 DA      0.0000
   1921 C1'        3.9020    -3.2604   616.0705 C.3      196 DA      0.0000
   1922 N9         3.4417    -1.9085   615.7709 N.ar     196 DA      0.0000
   1923 C8         4.1782    -0.7583   615.5761 C.ar     196 DA      0.0000
   1924 N7         3.4446     0.3127   615.3707 N.ar     196 DA      0.0000
   1925 C5         2.1447    -0.1487   615.4452 C.ar     196 DA      0.0000
   1926 C6         0.9012     0.5086   615.3118 C.ar     196 DA      0.0000
   1927 N6         0.7736     1.8095   615.0686 N.pl3    196 DA      0.0000
   1928 N1        -0.2021    -0.2929   615.4606 N.ar     196 DA      0.0000
   1929 C2        -0.1040    -1.6123   615.7131 C.ar     196 DA      0.0000
   1930 N3         1.0337    -2.2997   615.8520 N.ar     196 DA      0.0000
   1931 C4         2.1189    -1.5073   615.7048 C.ar     196 DA      0.0000
   1932 H5'        7.5562    -4.6413   617.9266 H        196 DA      0.0000
   1933 H5''       6.6309    -3.9006   619.2605 H        196 DA      0.0000
   1934 H4'        4.9970    -5.0319   618.0699 H        196 DA      0.0000
   1935 H3'        6.7554    -4.7794   615.8373 H        196 DA      0.0000
   1936 H2'        5.6406    -3.0354   614.8328 H        196 DA      0.0000
   1937 H2''       4.5135    -4.3297   614.3214 H        196 DA      0.0000
   1938 H1'        3.0563    -3.9453   616.1316 H        196 DA      0.0000
   1939 H8         5.2579    -0.7397   615.5911 H        196 DA      0.0000
   1940 H2        -1.0271    -2.1640   615.8122 H        196 DA      0.0000
   1941 H61       -0.1013     2.2197   615.3626 H        196 DA      0.0000
   1942 H62        1.5005     2.3496   614.6213 H        196 DA      0.0000
   1943 P          5.3777    -7.0125   614.6558 P.3      195 DT      0.0000
   1944 OP1        5.2460    -8.5033   614.7140 O.co2    195 DT      0.0000
   1945 OP2        6.6869    -6.5044   614.1432 O.co2    195 DT      0.0000
   1946 O5'        3.9765    -6.4469   613.9527 O.3      195 DT      0.0000
   1947 C5'        2.9259    -6.4010   614.9650 C.3      195 DT      0.0000
   1948 C4'        1.5960    -6.4320   614.2821 C.3      195 DT      0.0000
   1949 O4'        1.0315    -5.1676   614.1017 O.3      195 DT      0.0000
   1950 C3'        1.6111    -7.1101   612.9208 C.3      195 DT      0.0000
   1951 O3'        0.4221    -7.8637   612.6535 O.3      195 DT      0.0000
   1952 C2'        1.8186    -5.8801   612.0275 C.3      195 DT      0.0000
   1953 C1'        0.8845    -4.8755   612.6675 C.3      195 DT      0.0000
   1954 N1         1.3462    -3.4935   612.4375 N.am     195 DT      0.0000
   1955 C2         0.3813    -2.5092   612.3159 C.2      195 DT      0.0000
   1956 O2        -0.8188    -2.7856   612.3527 O.2      195 DT      0.0000
   1957 N3         0.7997    -1.2170   612.1485 N.am     195 DT      0.0000
   1958 C4         2.1186    -0.8887   612.1000 C.2      195 DT      0.0000
   1959 O4         2.4149     0.3293   611.9145 O.2      195 DT      0.0000
   1960 C5         3.0950    -1.9133   612.2484 C.2      195 DT      0.0000
   1961 C7         4.5684    -1.5861   612.1963 C.3      195 DT      0.0000
   1962 C6         2.6702    -3.1693   612.4214 C.2      195 DT      0.0000
   1963 H5'        3.0176    -7.2621   615.6271 H        195 DT      0.0000
   1964 H5''       3.0174    -5.4827   615.5451 H        195 DT      0.0000
   1965 H4'        0.9186    -7.0007   614.9191 H        195 DT      0.0000
   1966 H3'        2.4805    -7.7635   612.8488 H        195 DT      0.0000
   1967 H2'        2.8526    -5.5367   612.0581 H        195 DT      0.0000
   1968 H2''       1.5131    -6.0921   611.0029 H        195 DT      0.0000
   1969 H1'       -0.1437    -5.0151   612.3335 H        195 DT      0.0000
   1970 H3         0.1089    -0.4858   612.0584 H        195 DT      0.0000
   1971 H6         3.4009    -3.9537   612.5528 H        195 DT      0.0000
   1972 H71        4.9469    -1.7715   611.1911 H        195 DT      0.0000
   1973 H72        5.1050    -2.2137   612.9078 H        195 DT      0.0000
   1974 H73        4.7169    -0.5372   612.4528 H        195 DT      0.0000
   1975 P          0.3278    -8.5312   611.1636 P.3      194 DT      0.0000
   1976 OP1        0.3678   -10.0534   611.3116 O.co2    194 DT      0.0000
   1977 OP2        1.5849    -8.0553   610.4938 O.co2    194 DT      0.0000
   1978 O5'       -0.9897    -8.0398   610.5116 O.3      194 DT      0.0000
   1979 C5'       -2.1581    -7.7106   611.2630 C.3      194 DT      0.0000
   1980 C4'       -2.9161    -6.6611   610.5150 C.3      194 DT      0.0000
   1981 O4'       -2.3839    -5.3652   610.4580 O.3      194 DT      0.0000
   1982 C3'       -3.2942    -6.9642   609.0489 C.3      194 DT      0.0000
   1983 O3'       -4.5646    -6.3143   608.9452 O.3      194 DT      0.0000
   1984 C2'       -2.1973    -6.2105   608.2852 C.3      194 DT      0.0000
   1985 C1'       -2.2885    -4.9124   609.0609 C.3      194 DT      0.0000
   1986 N1        -1.1299    -4.0210   608.9547 N.am     194 DT      0.0000
   1987 C2        -1.4242    -2.6510   608.9541 C.2      194 DT      0.0000
   1988 O2        -2.5893    -2.2504   608.9972 O.2      194 DT      0.0000
   1989 N3        -0.3669    -1.7888   608.9007 N.am     194 DT      0.0000
   1990 C4         0.9278    -2.2115   608.8409 C.2      194 DT      0.0000
   1991 O4         1.8390    -1.3322   608.7785 O.2      194 DT      0.0000
   1992 C5         1.1979    -3.6071   608.8492 C.2      194 DT      0.0000
   1993 C7         2.6317    -4.0908   608.7877 C.3      194 DT      0.0000
   1994 C6         0.1607    -4.4469   608.9156 C.2      194 DT      0.0000
   1995 H5'       -2.7799    -8.5975   611.3852 H        194 DT      0.0000
   1996 H5''      -1.8692    -7.3273   612.2415 H        194 DT      0.0000
   1997 H4'       -3.8647    -6.5600   611.0422 H        194 DT      0.0000
   1998 H3'       -3.3303    -8.0293   608.8202 H        194 DT      0.0000
   1999 H2'       -2.4373    -6.0828   607.2296 H        194 DT      0.0000
   2000 H2''      -1.2246    -6.6843   608.4168 H        194 DT      0.0000
   2001 H1'       -3.1957    -4.3764   608.7819 H        194 DT      0.0000
   2002 H3        -0.5518    -0.7959   608.9055 H        194 DT      0.0000
   2003 H6         0.3558    -5.5088   608.9393 H        194 DT      0.0000
   2004 H71        3.3032    -3.2336   608.7389 H        194 DT      0.0000
   2005 H72        2.7684    -4.7100   607.9011 H        194 DT      0.0000
   2006 H73        2.8558    -4.6775   609.6787 H        194 DT      0.0000
   2007 P         -5.6000    -6.4714   607.7989 P.3      193 DC      0.0000
   2008 OP1       -6.9791    -6.7307   608.4081 O.co2    193 DC      0.0000
   2009 OP2       -5.1624    -7.6701   607.0171 O.co2    193 DC      0.0000
   2010 O5'       -5.4718    -5.0254   607.0595 O.3      193 DC      0.0000
   2011 C5'       -6.0784    -3.9054   607.7841 C.3      193 DC      0.0000
   2012 C4'       -6.6125    -2.9667   606.7335 C.3      193 DC      0.0000
   2013 O4'       -5.7399    -1.8884   606.4882 O.3      193 DC      0.0000
   2014 C3'       -6.8853    -3.6020   605.3691 C.3      193 DC      0.0000
   2015 O3'       -7.9912    -3.0391   604.6598 O.3      193 DC      0.0000
   2016 C2'       -5.5277    -3.3969   604.6830 C.3      193 DC      0.0000
   2017 C1'       -5.0843    -2.0413   605.2296 C.3      193 DC      0.0000
   2018 N1        -3.6072    -2.0577   605.3474 N.am     193 DC      0.0000
   2019 C2        -2.9593    -0.8233   605.3646 C.2      193 DC      0.0000
   2020 O2        -3.5975     0.2360   605.2959 O.2      193 DC      0.0000
   2021 N3        -1.5945    -0.8338   605.4678 N.2      193 DC      0.0000
   2022 C4        -0.8842    -1.9899   605.5386 C.2      193 DC      0.0000
   2023 N4         0.4460    -1.9482   605.6405 N.pl3    193 DC      0.0000
   2024 C5        -1.5703    -3.2362   605.5135 C.2      193 DC      0.0000
   2025 C6        -2.9110    -3.2250   605.4199 C.2      193 DC      0.0000
   2026 H5'       -6.8889    -4.2614   608.4200 H        193 DC      0.0000
   2027 H5''      -5.3249    -3.3997   608.3879 H        193 DC      0.0000
   2028 H4'       -7.5523    -2.5559   607.1023 H        193 DC      0.0000
   2029 H3'       -7.0569    -4.6699   605.5033 H        193 DC      0.0000
   2030 H2'       -5.6345    -3.3688   603.5986 H        193 DC      0.0000
   2031 H2''      -4.8268    -4.1774   604.9789 H        193 DC      0.0000
   2032 H1'       -5.3941    -1.2472   604.5502 H        193 DC      0.0000
   2033 H5        -1.0271    -4.1680   605.5682 H        193 DC      0.0000
   2034 H6        -3.4474    -4.1623   605.4018 H        193 DC      0.0000
   2035 H41        0.9233    -1.0583   605.6612 H        193 DC      0.0000
   2036 H42        0.9754    -2.8065   605.6969 H        193 DC      0.0000
   2037 P         -8.0825    -2.8238   603.0278 P.3      192 DA      0.0000
   2038 OP1       -9.5435    -2.7591   602.6383 O.co2    192 DA      0.0000
   2039 OP2       -7.3345    -3.9772   602.4577 O.co2    192 DA      0.0000
   2040 O5'       -7.4585    -1.3637   602.8623 O.3      192 DA      0.0000
   2041 C5'       -8.2625    -0.2110   603.3277 C.3      192 DA      0.0000
   2042 C4'       -7.7329     0.9105   602.4504 C.3      192 DA      0.0000
   2043 O4'       -6.3401     1.1178   602.7178 O.3      192 DA      0.0000
   2044 C3'       -7.7960     0.5918   600.9460 C.3      192 DA      0.0000
   2045 O3'       -7.6586     1.7628   600.1570 O.3      192 DA      0.0000
   2046 C2'       -6.4773    -0.1807   600.7586 C.3      192 DA      0.0000
   2047 C1'       -5.6060     0.8603   601.5132 C.3      192 DA      0.0000
   2048 N9        -4.3067     0.2121   601.6586 N.ar     192 DA      0.0000
   2049 C8        -4.0713    -1.1427   601.7315 C.ar     192 DA      0.0000
   2050 N7        -2.8022    -1.4441   601.8461 N.ar     192 DA      0.0000
   2051 C5        -2.1640    -0.1909   601.8397 C.ar     192 DA      0.0000
   2052 C6        -0.7883     0.1548   601.9397 C.ar     192 DA      0.0000
   2053 N6         0.1960    -0.7404   602.0625 N.pl3    192 DA      0.0000
   2054 N1        -0.5405     1.4940   601.9045 N.ar     192 DA      0.0000
   2055 C2        -1.5391     2.4030   601.7857 C.ar     192 DA      0.0000
   2056 N3        -2.8477     2.1491   601.6942 N.ar     192 DA      0.0000
   2057 C4        -3.0798     0.8251   601.7217 C.ar     192 DA      0.0000
   2058 H5'       -9.3269    -0.3764   603.1610 H        192 DA      0.0000
   2059 H5''      -8.0651    -0.0033   604.3793 H        192 DA      0.0000
   2060 H4'       -8.2858     1.8275   602.6544 H        192 DA      0.0000
   2061 H3'       -8.6721     0.0021   600.6764 H        192 DA      0.0000
   2062 H2'       -6.4848    -1.1585   601.2402 H        192 DA      0.0000
   2063 H2''      -6.1987    -0.2522   599.7072 H        192 DA      0.0000
   2064 H1'       -5.5108     1.7728   600.9248 H        192 DA      0.0000
   2065 H8        -4.8562    -1.8837   601.6975 H        192 DA      0.0000
   2066 H2        -1.2459     3.4421   601.7625 H        192 DA      0.0000
   2067 H61       -0.0189    -1.7269   602.0873 H        192 DA      0.0000
   2068 H62        1.1549    -0.4305   602.1306 H        192 DA      0.0000
   2069 P         -8.7101     2.1009   599.0161 P.3      191 DC      0.0000
   2070 OP1       -9.8231     2.7805   599.7963 O.co2    191 DC      0.0000
   2071 OP2       -9.1611     0.9081   598.2905 O.co2    191 DC      0.0000
   2072 O5'       -7.7995     3.0616   598.0402 O.3      191 DC      0.0000
   2073 C5'       -7.1240     4.1942   598.7092 C.3      191 DC      0.0000
   2074 C4'       -5.7777     4.3956   598.0652 C.3      191 DC      0.0000
   2075 O4'       -4.7248     3.6825   598.7023 O.3      191 DC      0.0000
   2076 C3'       -5.7514     3.9694   596.5874 C.3      191 DC      0.0000
   2077 O3'       -4.8844     4.7521   595.7761 O.3      191 DC      0.0000
   2078 C2'       -5.1425     2.5385   596.7530 C.3      191 DC      0.0000
   2079 C1'       -3.9594     3.0611   597.6486 C.3      191 DC      0.0000
   2080 N1        -3.0859     1.9419   597.8865 N.am     191 DC      0.0000
   2081 C2        -1.7610     2.1939   598.2036 C.2      191 DC      0.0000
   2082 O2        -1.1740     3.2727   598.3441 O.2      191 DC      0.0000
   2083 N3        -0.9340     1.1232   598.4018 N.2      191 DC      0.0000
   2084 C4        -1.3769    -0.1656   598.2859 C.2      191 DC      0.0000
   2085 N4        -0.5307    -1.1848   598.5019 N.pl3    191 DC      0.0000
   2086 C5        -2.7389    -0.4085   597.9562 C.2      191 DC      0.0000
   2087 C6        -3.5282     0.6550   597.7645 C.2      191 DC      0.0000
   2088 H5'       -7.7236     5.0976   598.5977 H        191 DC      0.0000
   2089 H5''      -6.9937     3.9694   599.7678 H        191 DC      0.0000
   2090 H4'       -5.5393     5.4581   598.1119 H        191 DC      0.0000
   2091 H3'       -6.7567     3.9271   596.1683 H        191 DC      0.0000
   2092 H2'       -5.8036     1.8430   597.2701 H        191 DC      0.0000
   2093 H2''      -4.7878     2.1346   595.8048 H        191 DC      0.0000
   2094 H1'       -3.4127     3.8306   597.1037 H        191 DC      0.0000
   2095 H5        -3.1221    -1.4141   597.8641 H        191 DC      0.0000
   2096 H6        -4.5622     0.4883   597.5013 H        191 DC      0.0000
   2097 H41        0.4325    -0.9992   598.7424 H        191 DC      0.0000
   2098 H42       -0.8571    -2.1375   598.4240 H        191 DC      0.0000
@<TRIPOS>BOND
     1      9     31 1
     2     39     63 1
     3    101    126 1
     4    134    158 1
     5      1      2 1
     6      1      3 1
     7      1      4 1
     8      4      5 1
     9      5      6 1
    10      6      7 1
    11      6      8 1
    12      7     11 1
    13      8      9 1
    14      8     10 1
    15     10     11 1
    16     11     12 1
    17     12     13 am
    18     12     19 1
    19     13     14 2
    20     13     15 1
    21     15     16 2
    22     16     17 2
    23     16     18 2
    24     18     19 2
    25     31     32 1
    26     31     33 1
    27     31     34 1
    28     34     35 1
    29     35     36 1
    30     36     37 1
    31     36     38 1
    32     37     41 1
    33     38     39 1
    34     38     40 1
    35     40     41 1
    36     41     42 1
    37     42     43 ar
    38     42     51 ar
    39     43     44 ar
    40     44     45 ar
    41     45     46 ar
    42     45     51 ar
    43     46     47 1
    44     46     48 ar
    45     48     49 ar
    46     49     50 ar
    47     50     51 ar
    48     63     64 1
    49     63     65 1
    50     63     66 1
    51     66     67 1
    52     67     68 1
    53     68     69 1
    54     68     70 1
    55     69     73 1
    56     70     71 1
    57     70     72 1
    58     72     73 1
    59     73     74 1
    60     74     75 am
    61     74     81 1
    62     75     76 2
    63     75     77 1
    64     77     78 2
    65     78     79 2
    66     78     80 2
    67     80     81 2
    68     93     94 1
    69     93     95 1
    70     93     96 1
    71     96     97 1
    72     97     98 1
    73     98     99 1
    74     98    100 1
    75     99    103 1
    76    100    101 1
    77    100    102 1
    78    102    103 1
    79    103    104 1
    80    104    105 ar
    81    104    114 ar
    82    105    106 ar
    83    106    107 ar
    84    107    108 1
    85    107    114 ar
    86    108    109 2
    87    108    110 am
    88    110    111 1
    89    111    112 2
    90    111    113 2
    91    113    114 1
    92    126    127 1
    93    126    128 1
    94    126    129 1
    95    129    130 1
    96    130    131 1
    97    131    132 1
    98    131    133 1
    99    132    136 1
   100    133    134 1
   101    133    135 1
   102    135    136 1
   103    136    137 1
   104    137    138 am
   105    137    145 1
   106    138    139 2
   107    138    140 am
   108    140    141 am
   109    141    142 2
   110    141    143 1
   111    143    144 1
   112    143    145 2
   113    158    159 1
   114    158    160 1
   115    158    161 1
   116    161    162 1
   117    162    163 1
   118    163    164 1
   119    163    165 1
   120    164    168 1
   121    165    166 1
   122    165    167 1
   123    167    168 1
   124    168    169 1
   125    169    170 ar
   126    169    179 ar
   127    170    171 ar
   128    171    172 ar
   129    172    173 1
   130    172    179 ar
   131    173    174 2
   132    173    175 am
   133    175    176 1
   134    176    177 2
   135    176    178 2
   136    178    179 1
   137     20      5 1
   138     21      5 1
   139     22      6 1
   140     23      8 1
   141     24     10 1
   142     25     10 1
   143     26     11 1
   144     27     18 1
   145     28     19 1
   146     52     35 1
   147     53     35 1
   148     54     36 1
   149     55     38 1
   150     56     40 1
   151     57     40 1
   152     58     41 1
   153     59     43 1
   154     60     49 1
   155     82     67 1
   156     83     67 1
   157     84     68 1
   158     85     70 1
   159     86     72 1
   160     87     72 1
   161     88     73 1
   162     89     80 1
   163     90     81 1
   164    115     97 1
   165    116     97 1
   166    117     98 1
   167    118    100 1
   168    119    102 1
   169    120    102 1
   170    121    103 1
   171    122    105 1
   172    123    110 1
   173    146    130 1
   174    147    130 1
   175    148    131 1
   176    149    133 1
   177    150    135 1
   178    151    135 1
   179    152    136 1
   180    153    140 1
   181    154    145 1
   182    180    162 1
   183    181    162 1
   184    182    163 1
   185    183    165 1
   186    184    167 1
   187    185    167 1
   188    186    168 1
   189    187    170 1
   190    188    175 1
   191     29     17 1
   192     30     17 1
   193     91     79 1
   194     92     79 1
   195    124    112 1
   196    125    112 1
   197    189    177 1
   198    190    177 1
   199     61     47 1
   200     62     47 1
   201    155    144 1
   202    156    144 1
   203    157    144 1
   204     71    191 1
   205     93    805 1
   206    199    224 1
   207    232    256 1
   208    264    289 1
   209    297    321 1
   210    329    353 1
   211    361    385 1
   212    393    417 1
   213    425    447 1
   214    455    479 1
   215    517    542 1
   216    550    574 1
   217    582    607 1
   218    615    639 1
   219    647    671 1
   220    679    703 1
   221    711    735 1
   222    743    765 1
   223    773    797 1
   224    191    192 1
   225    191    193 1
   226    191    194 1
   227    194    195 1
   228    195    196 1
   229    196    197 1
   230    196    198 1
   231    197    201 1
   232    198    199 1
   233    198    200 1
   234    200    201 1
   235    201    202 1
   236    202    203 ar
   237    202    212 ar
   238    203    204 ar
   239    204    205 ar
   240    205    206 1
   241    205    212 ar
   242    206    207 2
   243    206    208 am
   244    208    209 1
   245    209    210 2
   246    209    211 2
   247    211    212 1
   248    224    225 1
   249    224    226 1
   250    224    227 1
   251    227    228 1
   252    228    229 1
   253    229    230 1
   254    229    231 1
   255    230    234 1
   256    231    232 1
   257    231    233 1
   258    233    234 1
   259    234    235 1
   260    235    236 am
   261    235    243 1
   262    236    237 2
   263    236    238 am
   264    238    239 am
   265    239    240 2
   266    239    241 1
   267    241    242 1
   268    241    243 2
   269    256    257 1
   270    256    258 1
   271    256    259 1
   272    259    260 1
   273    260    261 1
   274    261    262 1
   275    261    263 1
   276    262    266 1
   277    263    264 1
   278    263    265 1
   279    265    266 1
   280    266    267 1
   281    267    268 ar
   282    267    277 ar
   283    268    269 ar
   284    269    270 ar
   285    270    271 1
   286    270    277 ar
   287    271    272 2
   288    271    273 am
   289    273    274 1
   290    274    275 2
   291    274    276 2
   292    276    277 1
   293    289    290 1
   294    289    291 1
   295    289    292 1
   296    292    293 1
   297    293    294 1
   298    294    295 1
   299    294    296 1
   300    295    299 1
   301    296    297 1
   302    296    298 1
   303    298    299 1
   304    299    300 1
   305    300    301 ar
   306    300    309 ar
   307    301    302 ar
   308    302    303 ar
   309    303    304 ar
   310    303    309 ar
   311    304    305 1
   312    304    306 ar
   313    306    307 ar
   314    307    308 ar
   315    308    309 ar
   316    321    322 1
   317    321    323 1
   318    321    324 1
   319    324    325 1
   320    325    326 1
   321    326    327 1
   322    326    328 1
   323    327    331 1
   324    328    329 1
   325    328    330 1
   326    330    331 1
   327    331    332 1
   328    332    333 ar
   329    332    341 ar
   330    333    334 ar
   331    334    335 ar
   332    335    336 ar
   333    335    341 ar
   334    336    337 1
   335    336    338 ar
   336    338    339 ar
   337    339    340 ar
   338    340    341 ar
   339    353    354 1
   340    353    355 1
   341    353    356 1
   342    356    357 1
   343    357    358 1
   344    358    359 1
   345    358    360 1
   346    359    363 1
   347    360    361 1
   348    360    362 1
   349    362    363 1
   350    363    364 1
   351    364    365 am
   352    364    372 1
   353    365    366 2
   354    365    367 am
   355    367    368 am
   356    368    369 2
   357    368    370 1
   358    370    371 1
   359    370    372 2
   360    385    386 1
   361    385    387 1
   362    385    388 1
   363    388    389 1
   364    389    390 1
   365    390    391 1
   366    390    392 1
   367    391    395 1
   368    392    393 1
   369    392    394 1
   370    394    395 1
   371    395    396 1
   372    396    397 am
   373    396    404 1
   374    397    398 2
   375    397    399 am
   376    399    400 am
   377    400    401 2
   378    400    402 1
   379    402    403 1
   380    402    404 2
   381    417    418 1
   382    417    419 1
   383    417    420 1
   384    420    421 1
   385    421    422 1
   386    422    423 1
   387    422    424 1
   388    423    427 1
   389    424    425 1
   390    424    426 1
   391    426    427 1
   392    427    428 1
   393    428    429 am
   394    428    435 1
   395    429    430 2
   396    429    431 1
   397    431    432 2
   398    432    433 2
   399    432    434 2
   400    434    435 2
   401    447    448 1
   402    447    449 1
   403    447    450 1
   404    450    451 1
   405    451    452 1
   406    452    453 1
   407    452    454 1
   408    453    457 1
   409    454    455 1
   410    454    456 1
   411    456    457 1
   412    457    458 1
   413    458    459 ar
   414    458    467 ar
   415    459    460 ar
   416    460    461 ar
   417    461    462 ar
   418    461    467 ar
   419    462    463 1
   420    462    464 ar
   421    464    465 ar
   422    465    466 ar
   423    466    467 ar
   424    479    480 1
   425    479    481 1
   426    479    482 1
   427    482    483 1
   428    483    484 1
   429    484    485 1
   430    484    486 1
   431    485    489 1
   432    486    487 1
   433    486    488 1
   434    488    489 1
   435    489    490 1
   436    490    491 am
   437    490    497 1
   438    491    492 2
   439    491    493 1
   440    493    494 2
   441    494    495 2
   442    494    496 2
   443    496    497 2
   444    509    510 1
   445    509    511 1
   446    509    512 1
   447    512    513 1
   448    513    514 1
   449    514    515 1
   450    514    516 1
   451    515    519 1
   452    516    517 1
   453    516    518 1
   454    518    519 1
   455    519    520 1
   456    520    521 ar
   457    520    530 ar
   458    521    522 ar
   459    522    523 ar
   460    523    524 1
   461    523    530 ar
   462    524    525 2
   463    524    526 am
   464    526    527 1
   465    527    528 2
   466    527    529 2
   467    529    530 1
   468    542    543 1
   469    542    544 1
   470    542    545 1
   471    545    546 1
   472    546    547 1
   473    547    548 1
   474    547    549 1
   475    548    552 1
   476    549    550 1
   477    549    551 1
   478    551    552 1
   479    552    553 1
   480    553    554 am
   481    553    561 1
   482    554    555 2
   483    554    556 am
   484    556    557 am
   485    557    558 2
   486    557    559 1
   487    559    560 1
   488    559    561 2
   489    574    575 1
   490    574    576 1
   491    574    577 1
   492    577    578 1
   493    578    579 1
   494    579    580 1
   495    579    581 1
   496    580    584 1
   497    581    582 1
   498    581    583 1
   499    583    584 1
   500    584    585 1
   501    585    586 ar
   502    585    595 ar
   503    586    587 ar
   504    587    588 ar
   505    588    589 1
   506    588    595 ar
   507    589    590 2
   508    589    591 am
   509    591    592 1
   510    592    593 2
   511    592    594 2
   512    594    595 1
   513    607    608 1
   514    607    609 1
   515    607    610 1
   516    610    611 1
   517    611    612 1
   518    612    613 1
   519    612    614 1
   520    613    617 1
   521    614    615 1
   522    614    616 1
   523    616    617 1
   524    617    618 1
   525    618    619 ar
   526    618    627 ar
   527    619    620 ar
   528    620    621 ar
   529    621    622 ar
   530    621    627 ar
   531    622    623 1
   532    622    624 ar
   533    624    625 ar
   534    625    626 ar
   535    626    627 ar
   536    639    640 1
   537    639    641 1
   538    639    642 1
   539    642    643 1
   540    643    644 1
   541    644    645 1
   542    644    646 1
   543    645    649 1
   544    646    647 1
   545    646    648 1
   546    648    649 1
   547    649    650 1
   548    650    651 ar
   549    650    659 ar
   550    651    652 ar
   551    652    653 ar
   552    653    654 ar
   553    653    659 ar
   554    654    655 1
   555    654    656 ar
   556    656    657 ar
   557    657    658 ar
   558    658    659 ar
   559    671    672 1
   560    671    673 1
   561    671    674 1
   562    674    675 1
   563    675    676 1
   564    676    677 1
   565    676    678 1
   566    677    681 1
   567    678    679 1
   568    678    680 1
   569    680    681 1
   570    681    682 1
   571    682    683 am
   572    682    690 1
   573    683    684 2
   574    683    685 am
   575    685    686 am
   576    686    687 2
   577    686    688 1
   578    688    689 1
   579    688    690 2
   580    703    704 1
   581    703    705 1
   582    703    706 1
   583    706    707 1
   584    707    708 1
   585    708    709 1
   586    708    710 1
   587    709    713 1
   588    710    711 1
   589    710    712 1
   590    712    713 1
   591    713    714 1
   592    714    715 am
   593    714    722 1
   594    715    716 2
   595    715    717 am
   596    717    718 am
   597    718    719 2
   598    718    720 1
   599    720    721 1
   600    720    722 2
   601    735    736 1
   602    735    737 1
   603    735    738 1
   604    738    739 1
   605    739    740 1
   606    740    741 1
   607    740    742 1
   608    741    745 1
   609    742    743 1
   610    742    744 1
   611    744    745 1
   612    745    746 1
   613    746    747 am
   614    746    753 1
   615    747    748 2
   616    747    749 1
   617    749    750 2
   618    750    751 2
   619    750    752 2
   620    752    753 2
   621    765    766 1
   622    765    767 1
   623    765    768 1
   624    768    769 1
   625    769    770 1
   626    770    771 1
   627    770    772 1
   628    771    775 1
   629    772    773 1
   630    772    774 1
   631    774    775 1
   632    775    776 1
   633    776    777 ar
   634    776    785 ar
   635    777    778 ar
   636    778    779 ar
   637    779    780 ar
   638    779    785 ar
   639    780    781 1
   640    780    782 ar
   641    782    783 ar
   642    783    784 ar
   643    784    785 ar
   644    797    798 1
   645    797    799 1
   646    797    800 1
   647    800    801 1
   648    801    802 1
   649    802    803 1
   650    802    804 1
   651    803    807 1
   652    804    805 1
   653    804    806 1
   654    806    807 1
   655    807    808 1
   656    808    809 am
   657    808    815 1
   658    809    810 2
   659    809    811 1
   660    811    812 2
   661    812    813 2
   662    812    814 2
   663    814    815 2
   664    213    195 1
   665    214    195 1
   666    215    196 1
   667    216    198 1
   668    217    200 1
   669    218    200 1
   670    219    201 1
   671    220    203 1
   672    221    208 1
   673    244    228 1
   674    245    228 1
   675    246    229 1
   676    247    231 1
   677    248    233 1
   678    249    233 1
   679    250    234 1
   680    251    238 1
   681    252    243 1
   682    278    260 1
   683    279    260 1
   684    280    261 1
   685    281    263 1
   686    282    265 1
   687    283    265 1
   688    284    266 1
   689    285    268 1
   690    286    273 1
   691    310    293 1
   692    311    293 1
   693    312    294 1
   694    313    296 1
   695    314    298 1
   696    315    298 1
   697    316    299 1
   698    317    301 1
   699    318    307 1
   700    342    325 1
   701    343    325 1
   702    344    326 1
   703    345    328 1
   704    346    330 1
   705    347    330 1
   706    348    331 1
   707    349    333 1
   708    350    339 1
   709    373    357 1
   710    374    357 1
   711    375    358 1
   712    376    360 1
   713    377    362 1
   714    378    362 1
   715    379    363 1
   716    380    367 1
   717    381    372 1
   718    405    389 1
   719    406    389 1
   720    407    390 1
   721    408    392 1
   722    409    394 1
   723    410    394 1
   724    411    395 1
   725    412    399 1
   726    413    404 1
   727    436    421 1
   728    437    421 1
   729    438    422 1
   730    439    424 1
   731    440    426 1
   732    441    426 1
   733    442    427 1
   734    443    434 1
   735    444    435 1
   736    468    451 1
   737    469    451 1
   738    470    452 1
   739    471    454 1
   740    472    456 1
   741    473    456 1
   742    474    457 1
   743    475    459 1
   744    476    465 1
   745    498    483 1
   746    499    483 1
   747    500    484 1
   748    501    486 1
   749    502    488 1
   750    503    488 1
   751    504    489 1
   752    505    496 1
   753    506    497 1
   754    531    513 1
   755    532    513 1
   756    533    514 1
   757    534    516 1
   758    535    518 1
   759    536    518 1
   760    537    519 1
   761    538    521 1
   762    539    526 1
   763    562    546 1
   764    563    546 1
   765    564    547 1
   766    565    549 1
   767    566    551 1
   768    567    551 1
   769    568    552 1
   770    569    556 1
   771    570    561 1
   772    596    578 1
   773    597    578 1
   774    598    579 1
   775    599    581 1
   776    600    583 1
   777    601    583 1
   778    602    584 1
   779    603    586 1
   780    604    591 1
   781    628    611 1
   782    629    611 1
   783    630    612 1
   784    631    614 1
   785    632    616 1
   786    633    616 1
   787    634    617 1
   788    635    619 1
   789    636    625 1
   790    660    643 1
   791    661    643 1
   792    662    644 1
   793    663    646 1
   794    664    648 1
   795    665    648 1
   796    666    649 1
   797    667    651 1
   798    668    657 1
   799    691    675 1
   800    692    675 1
   801    693    676 1
   802    694    678 1
   803    695    680 1
   804    696    680 1
   805    697    681 1
   806    698    685 1
   807    699    690 1
   808    723    707 1
   809    724    707 1
   810    725    708 1
   811    726    710 1
   812    727    712 1
   813    728    712 1
   814    729    713 1
   815    730    717 1
   816    731    722 1
   817    754    739 1
   818    755    739 1
   819    756    740 1
   820    757    742 1
   821    758    744 1
   822    759    744 1
   823    760    745 1
   824    761    752 1
   825    762    753 1
   826    786    769 1
   827    787    769 1
   828    788    770 1
   829    789    772 1
   830    790    774 1
   831    791    774 1
   832    792    775 1
   833    793    777 1
   834    794    783 1
   835    816    801 1
   836    817    801 1
   837    818    802 1
   838    819    804 1
   839    820    806 1
   840    821    806 1
   841    822    807 1
   842    823    814 1
   843    824    815 1
   844    222    210 1
   845    223    210 1
   846    287    275 1
   847    288    275 1
   848    445    433 1
   849    446    433 1
   850    507    495 1
   851    508    495 1
   852    540    528 1
   853    541    528 1
   854    605    593 1
   855    606    593 1
   856    763    751 1
   857    764    751 1
   858    825    813 1
   859    826    813 1
   860    319    305 1
   861    320    305 1
   862    351    337 1
   863    352    337 1
   864    477    463 1
   865    478    463 1
   866    637    623 1
   867    638    623 1
   868    669    655 1
   869    670    655 1
   870    795    781 1
   871    796    781 1
   872    253    242 1
   873    254    242 1
   874    255    242 1
   875    382    371 1
   876    383    371 1
   877    384    371 1
   878    414    403 1
   879    415    403 1
   880    416    403 1
   881    571    560 1
   882    572    560 1
   883    573    560 1
   884    700    689 1
   885    701    689 1
   886    702    689 1
   887    732    721 1
   888    733    721 1
   889    734    721 1
   890    487    827 1
   891    509   1441 1
   892    835    860 1
   893    868    892 1
   894    900    925 1
   895    933    957 1
   896    965    989 1
   897    997   1021 1
   898   1029   1053 1
   899   1061   1083 1
   900   1091   1115 1
   901   1153   1178 1
   902   1186   1210 1
   903   1218   1243 1
   904   1251   1275 1
   905   1283   1307 1
   906   1315   1339 1
   907   1347   1371 1
   908   1379   1401 1
   909   1409   1433 1
   910    827    828 1
   911    827    829 1
   912    827    830 1
   913    830    831 1
   914    831    832 1
   915    832    833 1
   916    832    834 1
   917    833    837 1
   918    834    835 1
   919    834    836 1
   920    836    837 1
   921    837    838 1
   922    838    839 ar
   923    838    848 ar
   924    839    840 ar
   925    840    841 ar
   926    841    842 1
   927    841    848 ar
   928    842    843 2
   929    842    844 am
   930    844    845 1
   931    845    846 2
   932    845    847 2
   933    847    848 1
   934    860    861 1
   935    860    862 1
   936    860    863 1
   937    863    864 1
   938    864    865 1
   939    865    866 1
   940    865    867 1
   941    866    870 1
   942    867    868 1
   943    867    869 1
   944    869    870 1
   945    870    871 1
   946    871    872 am
   947    871    879 1
   948    872    873 2
   949    872    874 am
   950    874    875 am
   951    875    876 2
   952    875    877 1
   953    877    878 1
   954    877    879 2
   955    892    893 1
   956    892    894 1
   957    892    895 1
   958    895    896 1
   959    896    897 1
   960    897    898 1
   961    897    899 1
   962    898    902 1
   963    899    900 1
   964    899    901 1
   965    901    902 1
   966    902    903 1
   967    903    904 ar
   968    903    913 ar
   969    904    905 ar
   970    905    906 ar
   971    906    907 1
   972    906    913 ar
   973    907    908 2
   974    907    909 am
   975    909    910 1
   976    910    911 2
   977    910    912 2
   978    912    913 1
   979    925    926 1
   980    925    927 1
   981    925    928 1
   982    928    929 1
   983    929    930 1
   984    930    931 1
   985    930    932 1
   986    931    935 1
   987    932    933 1
   988    932    934 1
   989    934    935 1
   990    935    936 1
   991    936    937 ar
   992    936    945 ar
   993    937    938 ar
   994    938    939 ar
   995    939    940 ar
   996    939    945 ar
   997    940    941 1
   998    940    942 ar
   999    942    943 ar
  1000    943    944 ar
  1001    944    945 ar
  1002    957    958 1
  1003    957    959 1
  1004    957    960 1
  1005    960    961 1
  1006    961    962 1
  1007    962    963 1
  1008    962    964 1
  1009    963    967 1
  1010    964    965 1
  1011    964    966 1
  1012    966    967 1
  1013    967    968 1
  1014    968    969 ar
  1015    968    977 ar
  1016    969    970 ar
  1017    970    971 ar
  1018    971    972 ar
  1019    971    977 ar
  1020    972    973 1
  1021    972    974 ar
  1022    974    975 ar
  1023    975    976 ar
  1024    976    977 ar
  1025    989    990 1
  1026    989    991 1
  1027    989    992 1
  1028    992    993 1
  1029    993    994 1
  1030    994    995 1
  1031    994    996 1
  1032    995    999 1
  1033    996    997 1
  1034    996    998 1
  1035    998    999 1
  1036    999   1000 1
  1037   1000   1001 am
  1038   1000   1008 1
  1039   1001   1002 2
  1040   1001   1003 am
  1041   1003   1004 am
  1042   1004   1005 2
  1043   1004   1006 1
  1044   1006   1007 1
  1045   1006   1008 2
  1046   1021   1022 1
  1047   1021   1023 1
  1048   1021   1024 1
  1049   1024   1025 1
  1050   1025   1026 1
  1051   1026   1027 1
  1052   1026   1028 1
  1053   1027   1031 1
  1054   1028   1029 1
  1055   1028   1030 1
  1056   1030   1031 1
  1057   1031   1032 1
  1058   1032   1033 am
  1059   1032   1040 1
  1060   1033   1034 2
  1061   1033   1035 am
  1062   1035   1036 am
  1063   1036   1037 2
  1064   1036   1038 1
  1065   1038   1039 1
  1066   1038   1040 2
  1067   1053   1054 1
  1068   1053   1055 1
  1069   1053   1056 1
  1070   1056   1057 1
  1071   1057   1058 1
  1072   1058   1059 1
  1073   1058   1060 1
  1074   1059   1063 1
  1075   1060   1061 1
  1076   1060   1062 1
  1077   1062   1063 1
  1078   1063   1064 1
  1079   1064   1065 am
  1080   1064   1071 1
  1081   1065   1066 2
  1082   1065   1067 1
  1083   1067   1068 2
  1084   1068   1069 2
  1085   1068   1070 2
  1086   1070   1071 2
  1087   1083   1084 1
  1088   1083   1085 1
  1089   1083   1086 1
  1090   1086   1087 1
  1091   1087   1088 1
  1092   1088   1089 1
  1093   1088   1090 1
  1094   1089   1093 1
  1095   1090   1091 1
  1096   1090   1092 1
  1097   1092   1093 1
  1098   1093   1094 1
  1099   1094   1095 ar
  1100   1094   1103 ar
  1101   1095   1096 ar
  1102   1096   1097 ar
  1103   1097   1098 ar
  1104   1097   1103 ar
  1105   1098   1099 1
  1106   1098   1100 ar
  1107   1100   1101 ar
  1108   1101   1102 ar
  1109   1102   1103 ar
  1110   1115   1116 1
  1111   1115   1117 1
  1112   1115   1118 1
  1113   1118   1119 1
  1114   1119   1120 1
  1115   1120   1121 1
  1116   1120   1122 1
  1117   1121   1125 1
  1118   1122   1123 1
  1119   1122   1124 1
  1120   1124   1125 1
  1121   1125   1126 1
  1122   1126   1127 am
  1123   1126   1133 1
  1124   1127   1128 2
  1125   1127   1129 1
  1126   1129   1130 2
  1127   1130   1131 2
  1128   1130   1132 2
  1129   1132   1133 2
  1130   1145   1146 1
  1131   1145   1147 1
  1132   1145   1148 1
  1133   1148   1149 1
  1134   1149   1150 1
  1135   1150   1151 1
  1136   1150   1152 1
  1137   1151   1155 1
  1138   1152   1153 1
  1139   1152   1154 1
  1140   1154   1155 1
  1141   1155   1156 1
  1142   1156   1157 ar
  1143   1156   1166 ar
  1144   1157   1158 ar
  1145   1158   1159 ar
  1146   1159   1160 1
  1147   1159   1166 ar
  1148   1160   1161 2
  1149   1160   1162 am
  1150   1162   1163 1
  1151   1163   1164 2
  1152   1163   1165 2
  1153   1165   1166 1
  1154   1178   1179 1
  1155   1178   1180 1
  1156   1178   1181 1
  1157   1181   1182 1
  1158   1182   1183 1
  1159   1183   1184 1
  1160   1183   1185 1
  1161   1184   1188 1
  1162   1185   1186 1
  1163   1185   1187 1
  1164   1187   1188 1
  1165   1188   1189 1
  1166   1189   1190 am
  1167   1189   1197 1
  1168   1190   1191 2
  1169   1190   1192 am
  1170   1192   1193 am
  1171   1193   1194 2
  1172   1193   1195 1
  1173   1195   1196 1
  1174   1195   1197 2
  1175   1210   1211 1
  1176   1210   1212 1
  1177   1210   1213 1
  1178   1213   1214 1
  1179   1214   1215 1
  1180   1215   1216 1
  1181   1215   1217 1
  1182   1216   1220 1
  1183   1217   1218 1
  1184   1217   1219 1
  1185   1219   1220 1
  1186   1220   1221 1
  1187   1221   1222 ar
  1188   1221   1231 ar
  1189   1222   1223 ar
  1190   1223   1224 ar
  1191   1224   1225 1
  1192   1224   1231 ar
  1193   1225   1226 2
  1194   1225   1227 am
  1195   1227   1228 1
  1196   1228   1229 2
  1197   1228   1230 2
  1198   1230   1231 1
  1199   1243   1244 1
  1200   1243   1245 1
  1201   1243   1246 1
  1202   1246   1247 1
  1203   1247   1248 1
  1204   1248   1249 1
  1205   1248   1250 1
  1206   1249   1253 1
  1207   1250   1251 1
  1208   1250   1252 1
  1209   1252   1253 1
  1210   1253   1254 1
  1211   1254   1255 ar
  1212   1254   1263 ar
  1213   1255   1256 ar
  1214   1256   1257 ar
  1215   1257   1258 ar
  1216   1257   1263 ar
  1217   1258   1259 1
  1218   1258   1260 ar
  1219   1260   1261 ar
  1220   1261   1262 ar
  1221   1262   1263 ar
  1222   1275   1276 1
  1223   1275   1277 1
  1224   1275   1278 1
  1225   1278   1279 1
  1226   1279   1280 1
  1227   1280   1281 1
  1228   1280   1282 1
  1229   1281   1285 1
  1230   1282   1283 1
  1231   1282   1284 1
  1232   1284   1285 1
  1233   1285   1286 1
  1234   1286   1287 ar
  1235   1286   1295 ar
  1236   1287   1288 ar
  1237   1288   1289 ar
  1238   1289   1290 ar
  1239   1289   1295 ar
  1240   1290   1291 1
  1241   1290   1292 ar
  1242   1292   1293 ar
  1243   1293   1294 ar
  1244   1294   1295 ar
  1245   1307   1308 1
  1246   1307   1309 1
  1247   1307   1310 1
  1248   1310   1311 1
  1249   1311   1312 1
  1250   1312   1313 1
  1251   1312   1314 1
  1252   1313   1317 1
  1253   1314   1315 1
  1254   1314   1316 1
  1255   1316   1317 1
  1256   1317   1318 1
  1257   1318   1319 am
  1258   1318   1326 1
  1259   1319   1320 2
  1260   1319   1321 am
  1261   1321   1322 am
  1262   1322   1323 2
  1263   1322   1324 1
  1264   1324   1325 1
  1265   1324   1326 2
  1266   1339   1340 1
  1267   1339   1341 1
  1268   1339   1342 1
  1269   1342   1343 1
  1270   1343   1344 1
  1271   1344   1345 1
  1272   1344   1346 1
  1273   1345   1349 1
  1274   1346   1347 1
  1275   1346   1348 1
  1276   1348   1349 1
  1277   1349   1350 1
  1278   1350   1351 am
  1279   1350   1358 1
  1280   1351   1352 2
  1281   1351   1353 am
  1282   1353   1354 am
  1283   1354   1355 2
  1284   1354   1356 1
  1285   1356   1357 1
  1286   1356   1358 2
  1287   1371   1372 1
  1288   1371   1373 1
  1289   1371   1374 1
  1290   1374   1375 1
  1291   1375   1376 1
  1292   1376   1377 1
  1293   1376   1378 1
  1294   1377   1381 1
  1295   1378   1379 1
  1296   1378   1380 1
  1297   1380   1381 1
  1298   1381   1382 1
  1299   1382   1383 am
  1300   1382   1389 1
  1301   1383   1384 2
  1302   1383   1385 1
  1303   1385   1386 2
  1304   1386   1387 2
  1305   1386   1388 2
  1306   1388   1389 2
  1307   1401   1402 1
  1308   1401   1403 1
  1309   1401   1404 1
  1310   1404   1405 1
  1311   1405   1406 1
  1312   1406   1407 1
  1313   1406   1408 1
  1314   1407   1411 1
  1315   1408   1409 1
  1316   1408   1410 1
  1317   1410   1411 1
  1318   1411   1412 1
  1319   1412   1413 ar
  1320   1412   1421 ar
  1321   1413   1414 ar
  1322   1414   1415 ar
  1323   1415   1416 ar
  1324   1415   1421 ar
  1325   1416   1417 1
  1326   1416   1418 ar
  1327   1418   1419 ar
  1328   1419   1420 ar
  1329   1420   1421 ar
  1330   1433   1434 1
  1331   1433   1435 1
  1332   1433   1436 1
  1333   1436   1437 1
  1334   1437   1438 1
  1335   1438   1439 1
  1336   1438   1440 1
  1337   1439   1443 1
  1338   1440   1441 1
  1339   1440   1442 1
  1340   1442   1443 1
  1341   1443   1444 1
  1342   1444   1445 am
  1343   1444   1451 1
  1344   1445   1446 2
  1345   1445   1447 1
  1346   1447   1448 2
  1347   1448   1449 2
  1348   1448   1450 2
  1349   1450   1451 2
  1350    849    831 1
  1351    850    831 1
  1352    851    832 1
  1353    852    834 1
  1354    853    836 1
  1355    854    836 1
  1356    855    837 1
  1357    856    839 1
  1358    857    844 1
  1359    880    864 1
  1360    881    864 1
  1361    882    865 1
  1362    883    867 1
  1363    884    869 1
  1364    885    869 1
  1365    886    870 1
  1366    887    874 1
  1367    888    879 1
  1368    914    896 1
  1369    915    896 1
  1370    916    897 1
  1371    917    899 1
  1372    918    901 1
  1373    919    901 1
  1374    920    902 1
  1375    921    904 1
  1376    922    909 1
  1377    946    929 1
  1378    947    929 1
  1379    948    930 1
  1380    949    932 1
  1381    950    934 1
  1382    951    934 1
  1383    952    935 1
  1384    953    937 1
  1385    954    943 1
  1386    978    961 1
  1387    979    961 1
  1388    980    962 1
  1389    981    964 1
  1390    982    966 1
  1391    983    966 1
  1392    984    967 1
  1393    985    969 1
  1394    986    975 1
  1395   1009    993 1
  1396   1010    993 1
  1397   1011    994 1
  1398   1012    996 1
  1399   1013    998 1
  1400   1014    998 1
  1401   1015    999 1
  1402   1016   1003 1
  1403   1017   1008 1
  1404   1041   1025 1
  1405   1042   1025 1
  1406   1043   1026 1
  1407   1044   1028 1
  1408   1045   1030 1
  1409   1046   1030 1
  1410   1047   1031 1
  1411   1048   1035 1
  1412   1049   1040 1
  1413   1072   1057 1
  1414   1073   1057 1
  1415   1074   1058 1
  1416   1075   1060 1
  1417   1076   1062 1
  1418   1077   1062 1
  1419   1078   1063 1
  1420   1079   1070 1
  1421   1080   1071 1
  1422   1104   1087 1
  1423   1105   1087 1
  1424   1106   1088 1
  1425   1107   1090 1
  1426   1108   1092 1
  1427   1109   1092 1
  1428   1110   1093 1
  1429   1111   1095 1
  1430   1112   1101 1
  1431   1134   1119 1
  1432   1135   1119 1
  1433   1136   1120 1
  1434   1137   1122 1
  1435   1138   1124 1
  1436   1139   1124 1
  1437   1140   1125 1
  1438   1141   1132 1
  1439   1142   1133 1
  1440   1167   1149 1
  1441   1168   1149 1
  1442   1169   1150 1
  1443   1170   1152 1
  1444   1171   1154 1
  1445   1172   1154 1
  1446   1173   1155 1
  1447   1174   1157 1
  1448   1175   1162 1
  1449   1198   1182 1
  1450   1199   1182 1
  1451   1200   1183 1
  1452   1201   1185 1
  1453   1202   1187 1
  1454   1203   1187 1
  1455   1204   1188 1
  1456   1205   1192 1
  1457   1206   1197 1
  1458   1232   1214 1
  1459   1233   1214 1
  1460   1234   1215 1
  1461   1235   1217 1
  1462   1236   1219 1
  1463   1237   1219 1
  1464   1238   1220 1
  1465   1239   1222 1
  1466   1240   1227 1
  1467   1264   1247 1
  1468   1265   1247 1
  1469   1266   1248 1
  1470   1267   1250 1
  1471   1268   1252 1
  1472   1269   1252 1
  1473   1270   1253 1
  1474   1271   1255 1
  1475   1272   1261 1
  1476   1296   1279 1
  1477   1297   1279 1
  1478   1298   1280 1
  1479   1299   1282 1
  1480   1300   1284 1
  1481   1301   1284 1
  1482   1302   1285 1
  1483   1303   1287 1
  1484   1304   1293 1
  1485   1327   1311 1
  1486   1328   1311 1
  1487   1329   1312 1
  1488   1330   1314 1
  1489   1331   1316 1
  1490   1332   1316 1
  1491   1333   1317 1
  1492   1334   1321 1
  1493   1335   1326 1
  1494   1359   1343 1
  1495   1360   1343 1
  1496   1361   1344 1
  1497   1362   1346 1
  1498   1363   1348 1
  1499   1364   1348 1
  1500   1365   1349 1
  1501   1366   1353 1
  1502   1367   1358 1
  1503   1390   1375 1
  1504   1391   1375 1
  1505   1392   1376 1
  1506   1393   1378 1
  1507   1394   1380 1
  1508   1395   1380 1
  1509   1396   1381 1
  1510   1397   1388 1
  1511   1398   1389 1
  1512   1422   1405 1
  1513   1423   1405 1
  1514   1424   1406 1
  1515   1425   1408 1
  1516   1426   1410 1
  1517   1427   1410 1
  1518   1428   1411 1
  1519   1429   1413 1
  1520   1430   1419 1
  1521   1452   1437 1
  1522   1453   1437 1
  1523   1454   1438 1
  1524   1455   1440 1
  1525   1456   1442 1
  1526   1457   1442 1
  1527   1458   1443 1
  1528   1459   1450 1
  1529   1460   1451 1
  1530    858    846 1
  1531    859    846 1
  1532    923    911 1
  1533    924    911 1
  1534   1081   1069 1
  1535   1082   1069 1
  1536   1143   1131 1
  1537   1144   1131 1
  1538   1176   1164 1
  1539   1177   1164 1
  1540   1241   1229 1
  1541   1242   1229 1
  1542   1399   1387 1
  1543   1400   1387 1
  1544   1461   1449 1
  1545   1462   1449 1
  1546    955    941 1
  1547    956    941 1
  1548    987    973 1
  1549    988    973 1
  1550   1113   1099 1
  1551   1114   1099 1
  1552   1273   1259 1
  1553   1274   1259 1
  1554   1305   1291 1
  1555   1306   1291 1
  1556   1431   1417 1
  1557   1432   1417 1
  1558    889    878 1
  1559    890    878 1
  1560    891    878 1
  1561   1018   1007 1
  1562   1019   1007 1
  1563   1020   1007 1
  1564   1050   1039 1
  1565   1051   1039 1
  1566   1052   1039 1
  1567   1207   1196 1
  1568   1208   1196 1
  1569   1209   1196 1
  1570   1336   1325 1
  1571   1337   1325 1
  1572   1338   1325 1
  1573   1368   1357 1
  1574   1369   1357 1
  1575   1370   1357 1
  1576   1123   1463 1
  1577   1145   2077 1
  1578   1471   1496 1
  1579   1504   1528 1
  1580   1536   1561 1
  1581   1569   1593 1
  1582   1601   1625 1
  1583   1633   1657 1
  1584   1665   1689 1
  1585   1697   1719 1
  1586   1727   1751 1
  1587   1789   1814 1
  1588   1822   1846 1
  1589   1854   1879 1
  1590   1887   1911 1
  1591   1919   1943 1
  1592   1951   1975 1
  1593   1983   2007 1
  1594   2015   2037 1
  1595   2045   2069 1
  1596   1463   1464 1
  1597   1463   1465 1
  1598   1463   1466 1
  1599   1466   1467 1
  1600   1467   1468 1
  1601   1468   1469 1
  1602   1468   1470 1
  1603   1469   1473 1
  1604   1470   1471 1
  1605   1470   1472 1
  1606   1472   1473 1
  1607   1473   1474 1
  1608   1474   1475 ar
  1609   1474   1484 ar
  1610   1475   1476 ar
  1611   1476   1477 ar
  1612   1477   1478 1
  1613   1477   1484 ar
  1614   1478   1479 2
  1615   1478   1480 am
  1616   1480   1481 1
  1617   1481   1482 2
  1618   1481   1483 2
  1619   1483   1484 1
  1620   1496   1497 1
  1621   1496   1498 1
  1622   1496   1499 1
  1623   1499   1500 1
  1624   1500   1501 1
  1625   1501   1502 1
  1626   1501   1503 1
  1627   1502   1506 1
  1628   1503   1504 1
  1629   1503   1505 1
  1630   1505   1506 1
  1631   1506   1507 1
  1632   1507   1508 am
  1633   1507   1515 1
  1634   1508   1509 2
  1635   1508   1510 am
  1636   1510   1511 am
  1637   1511   1512 2
  1638   1511   1513 1
  1639   1513   1514 1
  1640   1513   1515 2
  1641   1528   1529 1
  1642   1528   1530 1
  1643   1528   1531 1
  1644   1531   1532 1
  1645   1532   1533 1
  1646   1533   1534 1
  1647   1533   1535 1
  1648   1534   1538 1
  1649   1535   1536 1
  1650   1535   1537 1
  1651   1537   1538 1
  1652   1538   1539 1
  1653   1539   1540 ar
  1654   1539   1549 ar
  1655   1540   1541 ar
  1656   1541   1542 ar
  1657   1542   1543 1
  1658   1542   1549 ar
  1659   1543   1544 2
  1660   1543   1545 am
  1661   1545   1546 1
  1662   1546   1547 2
  1663   1546   1548 2
  1664   1548   1549 1
  1665   1561   1562 1
  1666   1561   1563 1
  1667   1561   1564 1
  1668   1564   1565 1
  1669   1565   1566 1
  1670   1566   1567 1
  1671   1566   1568 1
  1672   1567   1571 1
  1673   1568   1569 1
  1674   1568   1570 1
  1675   1570   1571 1
  1676   1571   1572 1
  1677   1572   1573 ar
  1678   1572   1581 ar
  1679   1573   1574 ar
  1680   1574   1575 ar
  1681   1575   1576 ar
  1682   1575   1581 ar
  1683   1576   1577 1
  1684   1576   1578 ar
  1685   1578   1579 ar
  1686   1579   1580 ar
  1687   1580   1581 ar
  1688   1593   1594 1
  1689   1593   1595 1
  1690   1593   1596 1
  1691   1596   1597 1
  1692   1597   1598 1
  1693   1598   1599 1
  1694   1598   1600 1
  1695   1599   1603 1
  1696   1600   1601 1
  1697   1600   1602 1
  1698   1602   1603 1
  1699   1603   1604 1
  1700   1604   1605 ar
  1701   1604   1613 ar
  1702   1605   1606 ar
  1703   1606   1607 ar
  1704   1607   1608 ar
  1705   1607   1613 ar
  1706   1608   1609 1
  1707   1608   1610 ar
  1708   1610   1611 ar
  1709   1611   1612 ar
  1710   1612   1613 ar
  1711   1625   1626 1
  1712   1625   1627 1
  1713   1625   1628 1
  1714   1628   1629 1
  1715   1629   1630 1
  1716   1630   1631 1
  1717   1630   1632 1
  1718   1631   1635 1
  1719   1632   1633 1
  1720   1632   1634 1
  1721   1634   1635 1
  1722   1635   1636 1
  1723   1636   1637 am
  1724   1636   1644 1
  1725   1637   1638 2
  1726   1637   1639 am
  1727   1639   1640 am
  1728   1640   1641 2
  1729   1640   1642 1
  1730   1642   1643 1
  1731   1642   1644 2
  1732   1657   1658 1
  1733   1657   1659 1
  1734   1657   1660 1
  1735   1660   1661 1
  1736   1661   1662 1
  1737   1662   1663 1
  1738   1662   1664 1
  1739   1663   1667 1
  1740   1664   1665 1
  1741   1664   1666 1
  1742   1666   1667 1
  1743   1667   1668 1
  1744   1668   1669 am
  1745   1668   1676 1
  1746   1669   1670 2
  1747   1669   1671 am
  1748   1671   1672 am
  1749   1672   1673 2
  1750   1672   1674 1
  1751   1674   1675 1
  1752   1674   1676 2
  1753   1689   1690 1
  1754   1689   1691 1
  1755   1689   1692 1
  1756   1692   1693 1
  1757   1693   1694 1
  1758   1694   1695 1
  1759   1694   1696 1
  1760   1695   1699 1
  1761   1696   1697 1
  1762   1696   1698 1
  1763   1698   1699 1
  1764   1699   1700 1
  1765   1700   1701 am
  1766   1700   1707 1
  1767   1701   1702 2
  1768   1701   1703 1
  1769   1703   1704 2
  1770   1704   1705 2
  1771   1704   1706 2
  1772   1706   1707 2
  1773   1719   1720 1
  1774   1719   1721 1
  1775   1719   1722 1
  1776   1722   1723 1
  1777   1723   1724 1
  1778   1724   1725 1
  1779   1724   1726 1
  1780   1725   1729 1
  1781   1726   1727 1
  1782   1726   1728 1
  1783   1728   1729 1
  1784   1729   1730 1
  1785   1730   1731 ar
  1786   1730   1739 ar
  1787   1731   1732 ar
  1788   1732   1733 ar
  1789   1733   1734 ar
  1790   1733   1739 ar
  1791   1734   1735 1
  1792   1734   1736 ar
  1793   1736   1737 ar
  1794   1737   1738 ar
  1795   1738   1739 ar
  1796   1751   1752 1
  1797   1751   1753 1
  1798   1751   1754 1
  1799   1754   1755 1
  1800   1755   1756 1
  1801   1756   1757 1
  1802   1756   1758 1
  1803   1757   1761 1
  1804   1758   1759 1
  1805   1758   1760 1
  1806   1760   1761 1
  1807   1761   1762 1
  1808   1762   1763 am
  1809   1762   1769 1
  1810   1763   1764 2
  1811   1763   1765 1
  1812   1765   1766 2
  1813   1766   1767 2
  1814   1766   1768 2
  1815   1768   1769 2
  1816   1781   1782 1
  1817   1781   1783 1
  1818   1781   1784 1
  1819   1784   1785 1
  1820   1785   1786 1
  1821   1786   1787 1
  1822   1786   1788 1
  1823   1787   1791 1
  1824   1788   1789 1
  1825   1788   1790 1
  1826   1790   1791 1
  1827   1791   1792 1
  1828   1792   1793 ar
  1829   1792   1802 ar
  1830   1793   1794 ar
  1831   1794   1795 ar
  1832   1795   1796 1
  1833   1795   1802 ar
  1834   1796   1797 2
  1835   1796   1798 am
  1836   1798   1799 1
  1837   1799   1800 2
  1838   1799   1801 2
  1839   1801   1802 1
  1840   1814   1815 1
  1841   1814   1816 1
  1842   1814   1817 1
  1843   1817   1818 1
  1844   1818   1819 1
  1845   1819   1820 1
  1846   1819   1821 1
  1847   1820   1824 1
  1848   1821   1822 1
  1849   1821   1823 1
  1850   1823   1824 1
  1851   1824   1825 1
  1852   1825   1826 am
  1853   1825   1833 1
  1854   1826   1827 2
  1855   1826   1828 am
  1856   1828   1829 am
  1857   1829   1830 2
  1858   1829   1831 1
  1859   1831   1832 1
  1860   1831   1833 2
  1861   1846   1847 1
  1862   1846   1848 1
  1863   1846   1849 1
  1864   1849   1850 1
  1865   1850   1851 1
  1866   1851   1852 1
  1867   1851   1853 1
  1868   1852   1856 1
  1869   1853   1854 1
  1870   1853   1855 1
  1871   1855   1856 1
  1872   1856   1857 1
  1873   1857   1858 ar
  1874   1857   1867 ar
  1875   1858   1859 ar
  1876   1859   1860 ar
  1877   1860   1861 1
  1878   1860   1867 ar
  1879   1861   1862 2
  1880   1861   1863 am
  1881   1863   1864 1
  1882   1864   1865 2
  1883   1864   1866 2
  1884   1866   1867 1
  1885   1879   1880 1
  1886   1879   1881 1
  1887   1879   1882 1
  1888   1882   1883 1
  1889   1883   1884 1
  1890   1884   1885 1
  1891   1884   1886 1
  1892   1885   1889 1
  1893   1886   1887 1
  1894   1886   1888 1
  1895   1888   1889 1
  1896   1889   1890 1
  1897   1890   1891 ar
  1898   1890   1899 ar
  1899   1891   1892 ar
  1900   1892   1893 ar
  1901   1893   1894 ar
  1902   1893   1899 ar
  1903   1894   1895 1
  1904   1894   1896 ar
  1905   1896   1897 ar
  1906   1897   1898 ar
  1907   1898   1899 ar
  1908   1911   1912 1
  1909   1911   1913 1
  1910   1911   1914 1
  1911   1914   1915 1
  1912   1915   1916 1
  1913   1916   1917 1
  1914   1916   1918 1
  1915   1917   1921 1
  1916   1918   1919 1
  1917   1918   1920 1
  1918   1920   1921 1
  1919   1921   1922 1
  1920   1922   1923 ar
  1921   1922   1931 ar
  1922   1923   1924 ar
  1923   1924   1925 ar
  1924   1925   1926 ar
  1925   1925   1931 ar
  1926   1926   1927 1
  1927   1926   1928 ar
  1928   1928   1929 ar
  1929   1929   1930 ar
  1930   1930   1931 ar
  1931   1943   1944 1
  1932   1943   1945 1
  1933   1943   1946 1
  1934   1946   1947 1
  1935   1947   1948 1
  1936   1948   1949 1
  1937   1948   1950 1
  1938   1949   1953 1
  1939   1950   1951 1
  1940   1950   1952 1
  1941   1952   1953 1
  1942   1953   1954 1
  1943   1954   1955 am
  1944   1954   1962 1
  1945   1955   1956 2
  1946   1955   1957 am
  1947   1957   1958 am
  1948   1958   1959 2
  1949   1958   1960 1
  1950   1960   1961 1
  1951   1960   1962 2
  1952   1975   1976 1
  1953   1975   1977 1
  1954   1975   1978 1
  1955   1978   1979 1
  1956   1979   1980 1
  1957   1980   1981 1
  1958   1980   1982 1
  1959   1981   1985 1
  1960   1982   1983 1
  1961   1982   1984 1
  1962   1984   1985 1
  1963   1985   1986 1
  1964   1986   1987 am
  1965   1986   1994 1
  1966   1987   1988 2
  1967   1987   1989 am
  1968   1989   1990 am
  1969   1990   1991 2
  1970   1990   1992 1
  1971   1992   1993 1
  1972   1992   1994 2
  1973   2007   2008 1
  1974   2007   2009 1
  1975   2007   2010 1
  1976   2010   2011 1
  1977   2011   2012 1
  1978   2012   2013 1
  1979   2012   2014 1
  1980   2013   2017 1
  1981   2014   2015 1
  1982   2014   2016 1
  1983   2016   2017 1
  1984   2017   2018 1
  1985   2018   2019 am
  1986   2018   2025 1
  1987   2019   2020 2
  1988   2019   2021 1
  1989   2021   2022 2
  1990   2022   2023 2
  1991   2022   2024 2
  1992   2024   2025 2
  1993   2037   2038 1
  1994   2037   2039 1
  1995   2037   2040 1
  1996   2040   2041 1
  1997   2041   2042 1
  1998   2042   2043 1
  1999   2042   2044 1
  2000   2043   2047 1
  2001   2044   2045 1
  2002   2044   2046 1
  2003   2046   2047 1
  2004   2047   2048 1
  2005   2048   2049 ar
  2006   2048   2057 ar
  2007   2049   2050 ar
  2008   2050   2051 ar
  2009   2051   2052 ar
  2010   2051   2057 ar
  2011   2052   2053 1
  2012   2052   2054 ar
  2013   2054   2055 ar
  2014   2055   2056 ar
  2015   2056   2057 ar
  2016   2069   2070 1
  2017   2069   2071 1
  2018   2069   2072 1
  2019   2072   2073 1
  2020   2073   2074 1
  2021   2074   2075 1
  2022   2074   2076 1
  2023   2075   2079 1
  2024   2076   2077 1
  2025   2076   2078 1
  2026   2078   2079 1
  2027   2079   2080 1
  2028   2080   2081 am
  2029   2080   2087 1
  2030   2081   2082 2
  2031   2081   2083 1
  2032   2083   2084 2
  2033   2084   2085 2
  2034   2084   2086 2
  2035   2086   2087 2
  2036   1485   1467 1
  2037   1486   1467 1
  2038   1487   1468 1
  2039   1488   1470 1
  2040   1489   1472 1
  2041   1490   1472 1
  2042   1491   1473 1
  2043   1492   1475 1
  2044   1493   1480 1
  2045   1516   1500 1
  2046   1517   1500 1
  2047   1518   1501 1
  2048   1519   1503 1
  2049   1520   1505 1
  2050   1521   1505 1
  2051   1522   1506 1
  2052   1523   1510 1
  2053   1524   1515 1
  2054   1550   1532 1
  2055   1551   1532 1
  2056   1552   1533 1
  2057   1553   1535 1
  2058   1554   1537 1
  2059   1555   1537 1
  2060   1556   1538 1
  2061   1557   1540 1
  2062   1558   1545 1
  2063   1582   1565 1
  2064   1583   1565 1
  2065   1584   1566 1
  2066   1585   1568 1
  2067   1586   1570 1
  2068   1587   1570 1
  2069   1588   1571 1
  2070   1589   1573 1
  2071   1590   1579 1
  2072   1614   1597 1
  2073   1615   1597 1
  2074   1616   1598 1
  2075   1617   1600 1
  2076   1618   1602 1
  2077   1619   1602 1
  2078   1620   1603 1
  2079   1621   1605 1
  2080   1622   1611 1
  2081   1645   1629 1
  2082   1646   1629 1
  2083   1647   1630 1
  2084   1648   1632 1
  2085   1649   1634 1
  2086   1650   1634 1
  2087   1651   1635 1
  2088   1652   1639 1
  2089   1653   1644 1
  2090   1677   1661 1
  2091   1678   1661 1
  2092   1679   1662 1
  2093   1680   1664 1
  2094   1681   1666 1
  2095   1682   1666 1
  2096   1683   1667 1
  2097   1684   1671 1
  2098   1685   1676 1
  2099   1708   1693 1
  2100   1709   1693 1
  2101   1710   1694 1
  2102   1711   1696 1
  2103   1712   1698 1
  2104   1713   1698 1
  2105   1714   1699 1
  2106   1715   1706 1
  2107   1716   1707 1
  2108   1740   1723 1
  2109   1741   1723 1
  2110   1742   1724 1
  2111   1743   1726 1
  2112   1744   1728 1
  2113   1745   1728 1
  2114   1746   1729 1
  2115   1747   1731 1
  2116   1748   1737 1
  2117   1770   1755 1
  2118   1771   1755 1
  2119   1772   1756 1
  2120   1773   1758 1
  2121   1774   1760 1
  2122   1775   1760 1
  2123   1776   1761 1
  2124   1777   1768 1
  2125   1778   1769 1
  2126   1803   1785 1
  2127   1804   1785 1
  2128   1805   1786 1
  2129   1806   1788 1
  2130   1807   1790 1
  2131   1808   1790 1
  2132   1809   1791 1
  2133   1810   1793 1
  2134   1811   1798 1
  2135   1834   1818 1
  2136   1835   1818 1
  2137   1836   1819 1
  2138   1837   1821 1
  2139   1838   1823 1
  2140   1839   1823 1
  2141   1840   1824 1
  2142   1841   1828 1
  2143   1842   1833 1
  2144   1868   1850 1
  2145   1869   1850 1
  2146   1870   1851 1
  2147   1871   1853 1
  2148   1872   1855 1
  2149   1873   1855 1
  2150   1874   1856 1
  2151   1875   1858 1
  2152   1876   1863 1
  2153   1900   1883 1
  2154   1901   1883 1
  2155   1902   1884 1
  2156   1903   1886 1
  2157   1904   1888 1
  2158   1905   1888 1
  2159   1906   1889 1
  2160   1907   1891 1
  2161   1908   1897 1
  2162   1932   1915 1
  2163   1933   1915 1
  2164   1934   1916 1
  2165   1935   1918 1
  2166   1936   1920 1
  2167   1937   1920 1
  2168   1938   1921 1
  2169   1939   1923 1
  2170   1940   1929 1
  2171   1963   1947 1
  2172   1964   1947 1
  2173   1965   1948 1
  2174   1966   1950 1
  2175   1967   1952 1
  2176   1968   1952 1
  2177   1969   1953 1
  2178   1970   1957 1
  2179   1971   1962 1
  2180   1995   1979 1
  2181   1996   1979 1
  2182   1997   1980 1
  2183   1998   1982 1
  2184   1999   1984 1
  2185   2000   1984 1
  2186   2001   1985 1
  2187   2002   1989 1
  2188   2003   1994 1
  2189   2026   2011 1
  2190   2027   2011 1
  2191   2028   2012 1
  2192   2029   2014 1
  2193   2030   2016 1
  2194   2031   2016 1
  2195   2032   2017 1
  2196   2033   2024 1
  2197   2034   2025 1
  2198   2058   2041 1
  2199   2059   2041 1
  2200   2060   2042 1
  2201   2061   2044 1
  2202   2062   2046 1
  2203   2063   2046 1
  2204   2064   2047 1
  2205   2065   2049 1
  2206   2066   2055 1
  2207   2088   2073 1
  2208   2089   2073 1
  2209   2090   2074 1
  2210   2091   2076 1
  2211   2092   2078 1
  2212   2093   2078 1
  2213   2094   2079 1
  2214   2095   2086 1
  2215   2096   2087 1
  2216   1494   1482 1
  2217   1495   1482 1
  2218   1559   1547 1
  2219   1560   1547 1
  2220   1717   1705 1
  2221   1718   1705 1
  2222   1779   1767 1
  2223   1780   1767 1
  2224   1812   1800 1
  2225   1813   1800 1
  2226   1877   1865 1
  2227   1878   1865 1
  2228   2035   2023 1
  2229   2036   2023 1
  2230   2097   2085 1
  2231   2098   2085 1
  2232   1591   1577 1
  2233   1592   1577 1
  2234   1623   1609 1
  2235   1624   1609 1
  2236   1749   1735 1
  2237   1750   1735 1
  2238   1909   1895 1
  2239   1910   1895 1
  2240   1941   1927 1
  2241   1942   1927 1
  2242   2067   2053 1
  2243   2068   2053 1
  2244   1525   1514 1
  2245   1526   1514 1
  2246   1527   1514 1
  2247   1654   1643 1
  2248   1655   1643 1
  2249   1656   1643 1
  2250   1686   1675 1
  2251   1687   1675 1
  2252   1688   1675 1
  2253   1843   1832 1
  2254   1844   1832 1
  2255   1845   1832 1
  2256   1972   1961 1
  2257   1973   1961 1
  2258   1974   1961 1
  2259   2004   1993 1
  2260   2005   1993 1
  2261   2006   1993 1
@<TRIPOS>MOLECULE
dna-seg-06-bp34
2162 2330 1 0 0
BIOPOLYMER
NO_CHARGES


@<TRIPOS>ATOM
      1 P          9.8387    -1.8927   632.3752 P.3      201 DG      0.0000
      2 OP1       10.9872    -2.8321   632.3737 O.co2    201 DG      0.0000
      3 OP2        8.8483    -2.4054   633.4309 O.co2    201 DG      0.0000
      4 O5'       10.1741    -0.3476   632.5536 O.3      201 DG      0.0000
      5 C5'       10.2265     0.6919   631.5536 C.3      201 DG      0.0000
      6 C4'        9.4119     1.8672   632.0524 C.3      201 DG      0.0000
      7 O4'        8.0662     1.7963   631.6333 O.3      201 DG      0.0000
      8 C3'        9.3869     2.1298   633.5446 C.3      201 DG      0.0000
      9 O3'        9.7839     3.4924   633.8566 O.3      201 DG      0.0000
     10 C2'        7.9661     1.8070   633.9665 C.3      201 DG      0.0000
     11 C1'        7.1617     2.0419   632.7108 C.3      201 DG      0.0000
     12 N9         5.9955     1.1407   632.6818 N.ar     201 DG      0.0000
     13 C8         5.9340    -0.2136   632.9107 C.ar     201 DG      0.0000
     14 N7         4.7244    -0.7187   632.8210 N.ar     201 DG      0.0000
     15 C5         3.9296     0.3799   632.5040 C.ar     201 DG      0.0000
     16 C6         2.5364     0.5031   632.2780 C.2      201 DG      0.0000
     17 O6         1.6796    -0.3810   632.2993 O.2      201 DG      0.0000
     18 N1         2.1019     1.7693   631.9965 N.am     201 DG      0.0000
     19 C2         2.8948     2.7909   631.9359 C.2      201 DG      0.0000
     20 N2         2.2410     3.8461   631.6391 N.pl3    201 DG      0.0000
     21 N3         4.2776     2.7712   632.1446 N.2      201 DG      0.0000
     22 C4         4.6961     1.5269   632.4172 C.ar     201 DG      0.0000
     23 H5'       11.2600     0.9999   631.3949 H        201 DG      0.0000
     24 H5''       9.8052     0.3235   630.6183 H        201 DG      0.0000
     25 H4'        9.8352     2.7576   631.5877 H        201 DG      0.0000
     26 H3'       10.0700     1.4388   634.0386 H        201 DG      0.0000
     27 H2'        7.8832     0.7706   634.2935 H        201 DG      0.0000
     28 H2''       7.6416     2.4825   634.7580 H        201 DG      0.0000
     29 H1'        6.8255     3.0783   632.6789 H        201 DG      0.0000
     30 H8         6.8038    -0.8100   633.1438 H        201 DG      0.0000
     31 H1         1.1165     1.9139   631.8281 H        201 DG      0.0000
     32 H21        1.2425     3.7976   631.4947 H        201 DG      0.0000
     33 H22        2.7220     4.7296   631.5486 H        201 DG      0.0000
     34 P          9.5819     4.1335   635.2851 P.3      202 DT      0.0000
     35 OP1       10.7087     4.9932   635.7968 O.co2    202 DT      0.0000
     36 OP2        9.5843     2.8981   636.2038 O.co2    202 DT      0.0000
     37 O5'        8.1760     4.7856   635.3137 O.3      202 DT      0.0000
     38 C5'        7.9608     6.2165   635.1697 C.3      202 DT      0.0000
     39 C4'        6.4568     6.3840   635.2272 C.3      202 DT      0.0000
     40 O4'        5.7754     5.1797   634.9521 O.3      202 DT      0.0000
     41 C3'        5.8843     6.8556   636.5400 C.3      202 DT      0.0000
     42 O3'        5.3039     8.1546   636.3518 O.3      202 DT      0.0000
     43 C2'        4.8301     5.8206   636.9322 C.3      202 DT      0.0000
     44 C1'        4.4629     5.2682   635.5795 C.3      202 DT      0.0000
     45 N1         3.9325     3.9082   635.6761 N.am     202 DT      0.0000
     46 C2         2.5887     3.7402   635.4782 C.2      202 DT      0.0000
     47 O2         1.8342     4.6805   635.2400 O.2      202 DT      0.0000
     48 N3         2.1014     2.4635   635.5592 N.am     202 DT      0.0000
     49 C4         2.8859     1.3922   635.8151 C.2      202 DT      0.0000
     50 O4         2.2951     0.2816   635.8604 O.2      202 DT      0.0000
     51 C5         4.2904     1.5871   636.0148 C.2      202 DT      0.0000
     52 C7         5.1926     0.4294   636.2947 C.3      202 DT      0.0000
     53 C6         4.7583     2.8392   635.9333 C.2      202 DT      0.0000
     54 H5'        8.4399     6.7613   635.9832 H        202 DT      0.0000
     55 H5''       8.3425     6.5608   634.2085 H        202 DT      0.0000
     56 H4'        6.1739     7.1075   634.4627 H        202 DT      0.0000
     57 H3'        6.6672     6.9000   637.2971 H        202 DT      0.0000
     58 H2'        5.2462     5.0499   637.5810 H        202 DT      0.0000
     59 H2''       3.9712     6.3004   637.4014 H        202 DT      0.0000
     60 H1'        3.7920     5.9320   635.0341 H        202 DT      0.0000
     61 H3         1.1119     2.3151   635.4217 H        202 DT      0.0000
     62 H6         5.8148     3.0145   636.0737 H        202 DT      0.0000
     63 H71        5.7397     0.1673   635.3892 H        202 DT      0.0000
     64 H72        4.5977    -0.4242   636.6195 H        202 DT      0.0000
     65 H73        5.8983     0.7003   637.0800 H        202 DT      0.0000
     66 P          5.5126     9.1365   637.6317 P.3      203 DG      0.0000
     67 OP1        5.7154    10.4663   636.9166 O.co2    203 DG      0.0000
     68 OP2        6.6698     8.6879   638.3852 O.co2    203 DG      0.0000
     69 O5'        4.0124     8.9311   638.2412 O.3      203 DG      0.0000
     70 C5'        3.0217     9.0432   637.1506 C.3      203 DG      0.0000
     71 C4'        1.7126     8.5266   637.6707 C.3      203 DG      0.0000
     72 O4'        1.4628     7.1583   637.4901 O.3      203 DG      0.0000
     73 C3'        1.5179     8.8188   639.1787 C.3      203 DG      0.0000
     74 O3'        0.2597     9.5179   639.3376 O.3      203 DG      0.0000
     75 C2'        1.6182     7.4565   639.8313 C.3      203 DG      0.0000
     76 C1'        1.0409     6.5508   638.7497 C.3      203 DG      0.0000
     77 N9         1.4887     5.1640   638.9193 N.ar     203 DG      0.0000
     78 C8         2.7309     4.7011   639.2555 C.ar     203 DG      0.0000
     79 N7         2.8234     3.3923   639.3412 N.ar     203 DG      0.0000
     80 C5         1.5387     2.9666   639.0112 C.ar     203 DG      0.0000
     81 C6         0.9870     1.6570   638.9169 C.2      203 DG      0.0000
     82 O6         1.5540     0.5711   639.1092 O.2      203 DG      0.0000
     83 N1        -0.3473     1.6248   638.5818 N.am     203 DG      0.0000
     84 C2        -1.0616     2.7622   638.3580 C.2      203 DG      0.0000
     85 N2        -2.3460     2.5402   638.0492 N.pl3    203 DG      0.0000
     86 N3        -0.5917     4.0056   638.4291 N.2      203 DG      0.0000
     87 C4         0.7116     4.0392   638.7557 C.ar     203 DG      0.0000
     88 H5'        2.9166    10.0856   636.8502 H        203 DG      0.0000
     89 H5''       3.3421     8.4442   636.2982 H        203 DG      0.0000
     90 H4'        0.9269     9.0644   637.1401 H        203 DG      0.0000
     91 H3'        2.3315     9.4515   639.5335 H        203 DG      0.0000
     92 H2'        2.6534     7.1984   640.0542 H        203 DG      0.0000
     93 H2''       1.0081     7.4159   640.7337 H        203 DG      0.0000
     94 H1'       -0.0471     6.5801   638.8087 H        203 DG      0.0000
     95 H8         3.5690     5.3580   639.4361 H        203 DG      0.0000
     96 H1        -0.8106     0.7311   638.4995 H        203 DG      0.0000
     97 H21       -2.6972     1.5946   637.9990 H        203 DG      0.0000
     98 H22       -2.9633     3.3185   637.8666 H        203 DG      0.0000
     99 P         -0.2001    10.0698   640.7260 P.3      204 DA      0.0000
    100 OP1        0.2397    11.4531   641.0814 O.co2    204 DA      0.0000
    101 OP2        0.6169     9.0679   641.6217 O.co2    204 DA      0.0000
    102 O5'       -1.7114     9.6593   640.9751 O.3      204 DA      0.0000
    103 C5'       -2.6584     9.3366   639.9461 C.3      204 DA      0.0000
    104 C4'       -3.3492     8.0683   640.4204 C.3      204 DA      0.0000
    105 O4'       -2.4709     6.9669   640.3300 O.3      204 DA      0.0000
    106 C3'       -3.8919     8.0875   641.8494 C.3      204 DA      0.0000
    107 O3'       -5.2418     7.5815   641.9017 O.3      204 DA      0.0000
    108 C2'       -2.8875     7.1918   642.5849 C.3      204 DA      0.0000
    109 C1'       -2.6654     6.1414   641.5073 C.3      204 DA      0.0000
    110 N9        -1.4861     5.3003   641.7357 N.ar     204 DA      0.0000
    111 C8        -0.1842     5.6534   641.9514 C.ar     204 DA      0.0000
    112 N7         0.6249     4.6307   642.1164 N.ar     204 DA      0.0000
    113 C5        -0.2023     3.5263   641.9762 C.ar     204 DA      0.0000
    114 C6         0.0696     2.1416   642.0242 C.ar     204 DA      0.0000
    115 N6         1.2773     1.6165   642.2440 N.pl3    204 DA      0.0000
    116 N1        -1.0119     1.3287   641.8344 N.ar     204 DA      0.0000
    117 C2        -2.2455     1.8402   641.6166 C.ar     204 DA      0.0000
    118 N3        -2.5757     3.1298   641.5584 N.ar     204 DA      0.0000
    119 C4        -1.4992     3.9150   641.7452 C.ar     204 DA      0.0000
    120 H5'       -2.1480     9.1619   638.9989 H        204 DA      0.0000
    121 H5''      -3.3849    10.1421   639.8383 H        204 DA      0.0000
    122 H4'       -4.1879     7.8782   639.7506 H        204 DA      0.0000
    123 H3'       -3.8552     9.1002   642.2509 H        204 DA      0.0000
    124 H2'       -1.9690     7.7249   642.8304 H        204 DA      0.0000
    125 H2''      -3.3347     6.7509   643.4758 H        204 DA      0.0000
    126 H1'       -3.5553     5.5224   641.3928 H        204 DA      0.0000
    127 H8         0.1500     6.6799   641.9835 H        204 DA      0.0000
    128 H2        -3.0461     1.1291   641.4753 H        204 DA      0.0000
    129 H61        2.1511     2.1137   642.1466 H        204 DA      0.0000
    130 H62        1.4094     0.6300   642.0724 H        204 DA      0.0000
    131 P         -6.3187     8.0668   643.0432 P.3      205 DA      0.0000
    132 OP1       -7.4943     8.7365   642.3761 O.co2    205 DA      0.0000
    133 OP2       -5.4747     8.9494   643.8741 O.co2    205 DA      0.0000
    134 O5'       -6.9052     6.6814   643.5740 O.3      205 DA      0.0000
    135 C5'       -7.6120     5.7561   642.7497 C.3      205 DA      0.0000
    136 C4'       -7.3411     4.3561   643.2720 C.3      205 DA      0.0000
    137 O4'       -5.9689     4.0815   643.3002 O.3      205 DA      0.0000
    138 C3'       -7.8979     3.9991   644.6393 C.3      205 DA      0.0000
    139 O3'       -8.8660     2.9531   644.5615 O.3      205 DA      0.0000
    140 C2'       -6.6496     3.6717   645.4680 C.3      205 DA      0.0000
    141 C1'       -5.6279     3.2755   644.4742 C.3      205 DA      0.0000
    142 N9        -4.1970     3.5074   644.7423 N.ar     205 DA      0.0000
    143 C8        -3.4993     4.6853   644.8575 C.ar     205 DA      0.0000
    144 N7        -2.2076     4.5297   645.0268 N.ar     205 DA      0.0000
    145 C5        -2.0322     3.1501   644.9898 C.ar     205 DA      0.0000
    146 C6        -0.8677     2.3393   645.1102 C.ar     205 DA      0.0000
    147 N6         0.3666     2.7877   645.3018 N.pl3    205 DA      0.0000
    148 N1        -1.0748     0.9861   645.0120 N.ar     205 DA      0.0000
    149 C2        -2.3309     0.4873   644.8230 C.ar     205 DA      0.0000
    150 N3        -3.4561     1.1847   644.7151 N.ar     205 DA      0.0000
    151 C4        -3.2369     2.5118   644.8070 C.ar     205 DA      0.0000
    152 H5'       -7.2653     5.8395   641.7196 H        205 DA      0.0000
    153 H5''      -8.6808     5.9650   642.7956 H        205 DA      0.0000
    154 H4'       -7.7867     3.6621   642.5593 H        205 DA      0.0000
    155 H3'       -8.3743     4.8834   645.0625 H        205 DA      0.0000
    156 H2'       -6.3207     4.5470   646.0283 H        205 DA      0.0000
    157 H2''      -6.8548     2.8446   646.1476 H        205 DA      0.0000
    158 H1'       -5.7704     2.2233   644.2282 H        205 DA      0.0000
    159 H8        -3.9728     5.6549   644.8126 H        205 DA      0.0000
    160 H2        -2.4193    -0.5869   644.7538 H        205 DA      0.0000
    161 H61        0.5550     3.7248   645.6280 H        205 DA      0.0000
    162 H62        1.1442     2.1707   645.1150 H        205 DA      0.0000
    163 P        -10.1725     2.8014   645.5177 P.3      206 DT      0.0000
    164 OP1      -11.4041     2.3871   644.7204 O.co2    206 DT      0.0000
    165 OP2      -10.3457     3.9817   646.3383 O.co2    206 DT      0.0000
    166 O5'       -9.8258     1.4148   646.3314 O.3      206 DT      0.0000
    167 C5'       -9.2136     0.4367   645.3863 C.3      206 DT      0.0000
    168 C4'       -8.0920    -0.1912   646.1740 C.3      206 DT      0.0000
    169 O4'       -6.9871     0.6634   646.3660 O.3      206 DT      0.0000
    170 C3'       -8.5345    -0.6020   647.5906 C.3      206 DT      0.0000
    171 O3'       -8.8483    -1.9824   647.5923 O.3      206 DT      0.0000
    172 C2'       -7.3635    -0.2089   648.4879 C.3      206 DT      0.0000
    173 C1'       -6.2744     0.0430   647.5232 C.3      206 DT      0.0000
    174 N1        -5.1768     0.9345   647.8630 N.am     206 DT      0.0000
    175 C2        -3.9182     0.3575   648.0009 C.2      206 DT      0.0000
    176 O2        -3.7924    -0.8571   647.9129 O.2      206 DT      0.0000
    177 N3        -2.8590     1.1755   648.2549 N.am     206 DT      0.0000
    178 C4        -2.9852     2.5299   648.3751 C.2      206 DT      0.0000
    179 O4        -1.9500     3.2243   648.6303 O.2      206 DT      0.0000
    180 C5        -4.2878     3.1042   648.2035 C.2      206 DT      0.0000
    181 C7        -4.4779     4.5931   648.2910 C.3      206 DT      0.0000
    182 C6        -5.3287     2.2931   647.9477 C.2      206 DT      0.0000
    183 H5'       -9.9420    -0.3161   645.0846 H        206 DT      0.0000
    184 H5''      -8.8186     0.9527   644.5113 H        206 DT      0.0000
    185 H4'       -7.7532    -1.0820   645.6449 H        206 DT      0.0000
    186 H3'       -9.4172    -0.0292   647.8749 H        206 DT      0.0000
    187 H2'       -7.5940     0.6889   649.0613 H        206 DT      0.0000
    188 H2''      -7.1007    -1.0304   649.1543 H        206 DT      0.0000
    189 H1'       -5.8609    -0.9143   647.2059 H        206 DT      0.0000
    190 H3        -1.9428     0.7635   648.3586 H        206 DT      0.0000
    191 H6        -6.3091     2.7233   647.8056 H        206 DT      0.0000
    192 H71       -3.5213     5.0702   648.5040 H        206 DT      0.0000
    193 H72       -4.8664     4.9658   647.3432 H        206 DT      0.0000
    194 H73       -5.1842     4.8230   649.0888 H        206 DT      0.0000
    195 P         -9.5342    -2.8277   648.6989 P.3      207 DT      0.0000
    196 OP1      -10.1772    -4.0991   648.0868 O.co2    207 DT      0.0000
    197 OP2      -10.5494    -1.9448   649.3289 O.co2    207 DT      0.0000
    198 O5'       -8.3208    -3.3945   649.5812 O.3      207 DT      0.0000
    199 C5'       -7.5356    -4.3882   648.8695 C.3      207 DT      0.0000
    200 C4'       -6.2160    -4.5281   649.5456 C.3      207 DT      0.0000
    201 O4'       -5.4302    -3.3429   649.5223 O.3      207 DT      0.0000
    202 C3'       -6.2991    -4.9750   651.0122 C.3      207 DT      0.0000
    203 O3'       -5.3266    -5.9683   651.2763 O.3      207 DT      0.0000
    204 C2'       -5.9246    -3.6667   651.7486 C.3      207 DT      0.0000
    205 C1'       -4.7819    -3.2505   650.8450 C.3      207 DT      0.0000
    206 N1        -4.3462    -1.8986   651.1427 N.am     207 DT      0.0000
    207 C2        -2.9863    -1.6395   651.1975 C.2      207 DT      0.0000
    208 O2        -2.1951    -2.5646   651.0091 O.2      207 DT      0.0000
    209 N3        -2.5821    -0.3615   651.4634 N.am     207 DT      0.0000
    210 C4        -3.4676     0.6513   651.6705 C.2      207 DT      0.0000
    211 O4        -3.0196     1.8123   651.8938 O.2      207 DT      0.0000
    212 C5        -4.8642     0.3740   651.6054 C.2      207 DT      0.0000
    213 C7        -5.9021     1.4378   651.8153 C.3      207 DT      0.0000
    214 C6        -5.2436    -0.8866   651.3443 C.2      207 DT      0.0000
    215 H5'       -8.0572    -5.3453   648.8819 H        207 DT      0.0000
    216 H5''      -7.3861    -4.0666   647.8387 H        207 DT      0.0000
    217 H4'       -5.6584    -5.2943   649.0071 H        207 DT      0.0000
    218 H3'       -7.3018    -5.3126   651.2747 H        207 DT      0.0000
    219 H2'       -6.7391    -2.9425   651.7473 H        207 DT      0.0000
    220 H2''      -5.5755    -3.8683   652.7613 H        207 DT      0.0000
    221 H1'       -3.9511    -3.9521   650.9206 H        207 DT      0.0000
    222 H3        -1.5930    -0.1618   651.5078 H        207 DT      0.0000
    223 H6        -6.2988    -1.1105   651.2912 H        207 DT      0.0000
    224 H71       -5.4115     2.3906   652.0142 H        207 DT      0.0000
    225 H72       -6.5175     1.5262   650.9200 H        207 DT      0.0000
    226 H73       -6.5314     1.1690   652.6637 H        207 DT      0.0000
    227 P         -5.3185    -7.4151   651.8842 P.3      208 DC      0.0000
    228 OP1       -5.0695    -8.4628   650.8163 O.co2    208 DC      0.0000
    229 OP2       -6.5907    -7.5364   652.6192 O.co2    208 DC      0.0000
    230 O5'       -3.9210    -7.2570   652.7102 O.3      208 DC      0.0000
    231 C5'       -2.9676    -6.7867   651.6880 C.3      208 DC      0.0000
    232 C4'       -1.6588    -6.5442   652.3845 C.3      208 DC      0.0000
    233 O4'       -1.4245    -5.1924   652.6314 O.3      208 DC      0.0000
    234 C3'       -1.4579    -7.3290   653.6760 C.3      208 DC      0.0000
    235 O3'       -0.2762    -8.1151   653.5963 O.3      208 DC      0.0000
    236 C2'       -1.5184    -6.2164   654.7247 C.3      208 DC      0.0000
    237 C1'       -1.0139    -5.0150   654.0283 C.3      208 DC      0.0000
    238 N1        -1.6477    -3.7352   654.3604 N.am     208 DC      0.0000
    239 C2        -0.7806    -2.6751   654.6162 C.2      208 DC      0.0000
    240 O2         0.4441    -2.8332   654.6207 O.2      208 DC      0.0000
    241 N3        -1.3406    -1.4518   654.8900 N.2      208 DC      0.0000
    242 C4        -2.6922    -1.2690   654.8801 C.2      208 DC      0.0000
    243 N4        -3.1373    -0.0483   655.1570 N.pl3    208 DC      0.0000
    244 C5        -3.5584    -2.3492   654.6021 C.2      208 DC      0.0000
    245 C6        -2.9930    -3.5449   654.3373 C.2      208 DC      0.0000
    246 H5'       -2.8446    -7.5446   650.9143 H        208 DC      0.0000
    247 H5''      -3.3283    -5.8590   651.2438 H        208 DC      0.0000
    248 H4'       -0.8782    -6.8730   651.6985 H        208 DC      0.0000
    249 H3'       -2.3109    -7.9923   653.8192 H        208 DC      0.0000
    250 H2'       -2.5432    -6.0624   655.0626 H        208 DC      0.0000
    251 H2''      -0.8751    -6.4599   655.5703 H        208 DC      0.0000
    252 H1'        0.0708    -4.9448   654.1093 H        208 DC      0.0000
    253 H5        -4.6310    -2.2230   654.6015 H        208 DC      0.0000
    254 H6        -3.6328    -4.3815   654.0983 H        208 DC      0.0000
    255 H41       -2.4830     0.6947   655.3562 H        208 DC      0.0000
    256 H42       -4.1302     0.1366   655.1683 H        208 DC      0.0000
    257 P          0.1085    -9.3717   654.5483 P.3      209 DA      0.0000
    258 OP1        1.0495   -10.2574   653.7546 O.co2    209 DA      0.0000
    259 OP2       -1.1430   -10.0761   654.8939 O.co2    209 DA      0.0000
    260 O5'        0.8446    -8.6760   655.8453 O.3      209 DA      0.0000
    261 C5'        1.9489    -7.7669   655.5501 C.3      209 DA      0.0000
    262 C4'        2.4544    -7.1349   656.8054 C.3      209 DA      0.0000
    263 O4'        1.9843    -5.8054   657.0475 O.3      209 DA      0.0000
    264 C3'        2.0768    -7.8551   658.1106 C.3      209 DA      0.0000
    265 O3'        2.9724    -7.4306   659.1405 O.3      209 DA      0.0000
    266 C2'        0.6703    -7.2612   658.3252 C.3      209 DA      0.0000
    267 C1'        1.0709    -5.7934   658.1419 C.3      209 DA      0.0000
    268 N9        -0.1284    -4.9783   658.0476 N.ar     209 DA      0.0000
    269 C8        -1.4426    -5.3376   657.9318 C.ar     209 DA      0.0000
    270 N7        -2.2969    -4.3302   657.9132 N.ar     209 DA      0.0000
    271 C5        -1.4753    -3.2170   658.0207 C.ar     209 DA      0.0000
    272 C6        -1.7574    -1.8291   658.0552 C.ar     209 DA      0.0000
    273 N6        -2.9683    -1.3084   657.9700 N.pl3    209 DA      0.0000
    274 N1        -0.6806    -0.9998   658.1878 N.ar     209 DA      0.0000
    275 C2         0.5930    -1.4967   658.2680 C.ar     209 DA      0.0000
    276 N3         0.9364    -2.7822   658.2382 N.ar     209 DA      0.0000
    277 C4        -0.1447    -3.5908   658.1151 C.ar     209 DA      0.0000
    278 H5'        2.7575    -8.3257   655.0789 H        209 DA      0.0000
    279 H5''       1.6034    -6.9893   654.8688 H        209 DA      0.0000
    280 H4'        3.5422    -7.0989   656.7465 H        209 DA      0.0000
    281 H3'        2.0576    -8.9390   657.9970 H        209 DA      0.0000
    282 H2'       -0.0451    -7.5968   657.5744 H        209 DA      0.0000
    283 H2''       0.3070    -7.4519   659.3351 H        209 DA      0.0000
    284 H1'        1.6182    -5.4821   659.0316 H        209 DA      0.0000
    285 H8        -1.7586    -6.3679   657.8608 H        209 DA      0.0000
    286 H2         1.3936    -0.7782   658.3645 H        209 DA      0.0000
    287 H61       -3.3548    -0.3928   658.1500 H        209 DA      0.0000
    288 H62       -3.6609    -1.9728   657.6552 H        209 DA      0.0000
    289 P          4.4385    -8.0562   659.2810 P.3      210 DC      0.0000
    290 OP1        4.9146    -8.7226   658.0359 O.co2    210 DC      0.0000
    291 OP2        4.2663    -9.0145   660.4239 O.co2    210 DC      0.0000
    292 O5'        5.3496    -6.7896   659.5642 O.3      210 DC      0.0000
    293 C5'        5.8230    -5.9389   658.4765 C.3      210 DC      0.0000
    294 C4'        5.9556    -4.5842   659.1814 C.3      210 DC      0.0000
    295 O4'        4.6544    -4.1437   659.4934 O.3      210 DC      0.0000
    296 C3'        6.7369    -4.6458   660.4913 C.3      210 DC      0.0000
    297 O3'        7.7996    -3.6682   660.5592 O.3      210 DC      0.0000
    298 C2'        5.6639    -4.4528   661.5735 C.3      210 DC      0.0000
    299 C1'        4.6799    -3.5867   660.8973 C.3      210 DC      0.0000
    300 N1         3.2630    -3.6224   661.2502 N.am     210 DC      0.0000
    301 C2         2.6149    -2.3889   661.2233 C.2      210 DC      0.0000
    302 O2         3.2050    -1.3360   661.0164 O.2      210 DC      0.0000
    303 N3         1.2786    -2.3795   661.4764 N.2      210 DC      0.0000
    304 C4         0.5742    -3.5133   661.7098 C.2      210 DC      0.0000
    305 N4        -0.7301    -3.3758   661.9407 N.pl3    210 DC      0.0000
    306 C5         1.2445    -4.7674   661.7163 C.2      210 DC      0.0000
    307 C6         2.5631    -4.7689   661.4669 C.2      210 DC      0.0000
    308 H5'        6.7831    -6.2827   658.0916 H        210 DC      0.0000
    309 H5''       5.0833    -5.8871   657.6774 H        210 DC      0.0000
    310 H4'        6.4297    -3.8695   658.5087 H        210 DC      0.0000
    311 H3'        7.1678    -5.6414   660.5972 H        210 DC      0.0000
    312 H2'        5.2184    -5.4053   661.8605 H        210 DC      0.0000
    313 H2''       6.0839    -3.9485   662.4438 H        210 DC      0.0000
    314 H1'        5.0359    -2.5566   660.8841 H        210 DC      0.0000
    315 H5         0.7116    -5.6856   661.9148 H        210 DC      0.0000
    316 H6         3.0870    -5.7128   661.4372 H        210 DC      0.0000
    317 H41       -1.1509    -2.4578   661.9296 H        210 DC      0.0000
    318 H42       -1.2984    -4.1898   662.1268 H        210 DC      0.0000
    319 P         -7.0057     4.7924   663.5187 P.3      210 DG      0.0000
    320 OP1       -8.2678     5.5747   663.6975 O.co2    210 DG      0.0000
    321 OP2       -7.1119     3.7287   662.4339 O.co2    210 DG      0.0000
    322 O5'       -5.7451     5.8303   663.3115 O.3      210 DG      0.0000
    323 C5'       -4.7897     6.0213   664.4073 C.3      210 DG      0.0000
    324 C4'       -3.4073     6.1556   663.7730 C.3      210 DG      0.0000
    325 O4'       -2.7512     4.9208   663.6772 O.3      210 DG      0.0000
    326 C3'       -3.4125     6.7490   662.3666 C.3      210 DG      0.0000
    327 O3'       -2.3230     7.6621   662.0997 O.3      210 DG      0.0000
    328 C2'       -3.3388     5.5040   661.4644 C.3      210 DG      0.0000
    329 C1'       -2.4275     4.6095   662.2882 C.3      210 DG      0.0000
    330 N9        -2.6927     3.1867   662.0149 N.ar     210 DG      0.0000
    331 C8        -3.9107     2.5689   661.8582 C.ar     210 DG      0.0000
    332 N7        -3.8298     1.2833   661.6398 N.ar     210 DG      0.0000
    333 C5        -2.4633     1.0304   661.6646 C.ar     210 DG      0.0000
    334 C6        -1.7300    -0.1760   661.5081 C.2      210 DG      0.0000
    335 O6        -2.1983    -1.3065   661.3113 O.2      210 DG      0.0000
    336 N1        -0.3681    -0.0248   661.5950 N.am     210 DG      0.0000
    337 C2         0.2226     1.1752   661.8157 C.2      210 DG      0.0000
    338 N2         1.5513     1.1673   661.8791 N.pl3    210 DG      0.0000
    339 N3        -0.4202     2.3387   661.9734 N.2      210 DG      0.0000
    340 C4        -1.7565     2.1896   661.8902 C.ar     210 DG      0.0000
    341 H5'       -5.0354     6.9250   664.9650 H        210 DG      0.0000
    342 H5''      -4.8105     5.1579   665.0722 H        210 DG      0.0000
    343 H4'       -2.8075     6.8060   664.4097 H        210 DG      0.0000
    344 H3'       -4.3598     7.2606   662.1962 H        210 DG      0.0000
    345 H2'       -4.3210     5.0534   661.3217 H        210 DG      0.0000
    346 H2''      -2.8806     5.7465   660.5056 H        210 DG      0.0000
    347 H1'       -1.3831     4.8443   662.0829 H        210 DG      0.0000
    348 H8        -4.8503     3.0987   661.9110 H        210 DG      0.0000
    349 H1         0.2176    -0.8410   661.4903 H        210 DG      0.0000
    350 H21        2.0572     0.3008   661.7640 H        210 DG      0.0000
    351 H22        2.0542     2.0279   662.0422 H        210 DG      0.0000
    352 P         -1.8303     7.7273   660.5762 P.3      209 DT      0.0000
    353 OP1       -1.2418     9.0562   660.1853 O.co2    209 DT      0.0000
    354 OP2       -3.1148     7.4816   659.8756 O.co2    209 DT      0.0000
    355 O5'       -0.7238     6.5760   660.4453 O.3      209 DT      0.0000
    356 C5'        0.6627     6.9607   660.7129 C.3      209 DT      0.0000
    357 C4'        1.5747     6.0200   659.9559 C.3      209 DT      0.0000
    358 O4'        1.0939     4.6879   659.9286 O.3      209 DT      0.0000
    359 C3'        1.7682     6.4192   658.5012 C.3      209 DT      0.0000
    360 O3'        3.1081     6.2067   658.0060 O.3      209 DT      0.0000
    361 C2'        0.7571     5.5572   657.7783 C.3      209 DT      0.0000
    362 C1'        0.9330     4.2637   658.5564 C.3      209 DT      0.0000
    363 N1        -0.3184     3.5048   658.4051 N.am     209 DT      0.0000
    364 C2        -0.2150     2.1216   658.5119 C.2      209 DT      0.0000
    365 O2         0.8750     1.5925   658.7016 O.2      209 DT      0.0000
    366 N3        -1.3687     1.3984   658.3917 N.am     209 DT      0.0000
    367 C4        -2.5743     1.9952   658.1741 C.2      209 DT      0.0000
    368 O4        -3.5955     1.2372   658.0766 O.2      209 DT      0.0000
    369 C5        -2.6486     3.4134   658.0677 C.2      209 DT      0.0000
    370 C7        -3.9735     4.0825   657.8388 C.3      209 DT      0.0000
    371 C6        -1.5186     4.1148   658.1895 C.2      209 DT      0.0000
    372 H5'        0.8314     7.9846   660.3792 H        209 DT      0.0000
    373 H5''       0.8642     6.8857   661.7815 H        209 DT      0.0000
    374 H4'        2.5494     6.0220   660.4438 H        209 DT      0.0000
    375 H3'        1.5009     7.4686   658.3772 H        209 DT      0.0000
    376 H2'       -0.2545     5.9529   657.8698 H        209 DT      0.0000
    377 H2''       1.0324     5.4250   656.7319 H        209 DT      0.0000
    378 H1'        1.7946     3.6957   658.2058 H        209 DT      0.0000
    379 H3        -1.3264     0.3921   658.4664 H        209 DT      0.0000
    380 H6        -1.5564     5.1915   658.1154 H        209 DT      0.0000
    381 H71       -4.7558     3.3266   657.7701 H        209 DT      0.0000
    382 H72       -4.1895     4.7541   658.6697 H        209 DT      0.0000
    383 H73       -3.9369     4.6530   656.9107 H        209 DT      0.0000
    384 P          3.5677     7.5986   657.2277 P.3      208 DG      0.0000
    385 OP1        4.3319     8.5415   658.0989 O.co2    208 DG      0.0000
    386 OP2        2.2225     8.0771   656.8221 O.co2    208 DG      0.0000
    387 O5'        4.5847     7.0051   656.1468 O.3      208 DG      0.0000
    388 C5'        5.9245     6.6464   656.5703 C.3      208 DG      0.0000
    389 C4'        6.1004     5.2008   656.1226 C.3      208 DG      0.0000
    390 O4'        4.9194     4.4726   656.3933 O.3      208 DG      0.0000
    391 C3'        6.4104     5.0349   654.6348 C.3      208 DG      0.0000
    392 O3'        7.6104     4.3120   654.4263 O.3      208 DG      0.0000
    393 C2'        5.1568     4.4015   654.0581 C.3      208 DG      0.0000
    394 C1'        4.5784     3.6666   655.2443 C.3      208 DG      0.0000
    395 N9         3.1241     3.5356   655.1207 N.ar     208 DG      0.0000
    396 C8         2.1940     4.5236   654.9618 C.ar     208 DG      0.0000
    397 N7         0.9625     4.0813   654.8838 N.ar     208 DG      0.0000
    398 C5         1.0893     2.7021   655.0213 C.ar     208 DG      0.0000
    399 C6         0.1262     1.6588   655.0308 C.2      208 DG      0.0000
    400 O6        -1.0912     1.7736   654.9317 O.2      208 DG      0.0000
    401 N1         0.6479     0.4052   655.1797 N.am     208 DG      0.0000
    402 C2         1.9978     0.1871   655.3126 C.2      208 DG      0.0000
    403 N2         2.3716    -1.0856   655.4483 N.pl3    208 DG      0.0000
    404 N3         2.9545     1.1210   655.3169 N.2      208 DG      0.0000
    405 C4         2.4225     2.3579   655.1662 C.ar     208 DG      0.0000
    406 H5'        6.6633     7.2891   656.0916 H        208 DG      0.0000
    407 H5''       6.0088     6.7180   657.6546 H        208 DG      0.0000
    408 H4'        6.9159     4.7597   656.6956 H        208 DG      0.0000
    409 H3'        6.5266     6.0260   654.1963 H        208 DG      0.0000
    410 H2'        4.4660     5.1609   653.6918 H        208 DG      0.0000
    411 H2''       5.4130     3.7017   653.2626 H        208 DG      0.0000
    412 H1'        5.0355     2.6809   655.3313 H        208 DG      0.0000
    413 H8         2.4495     5.5714   654.9057 H        208 DG      0.0000
    414 H1         0.0211    -0.3867   655.1926 H        208 DG      0.0000
    415 H21        1.6768    -1.8186   655.4493 H        208 DG      0.0000
    416 H22        3.3495    -1.3166   655.5501 H        208 DG      0.0000
    417 P          8.0243     3.0569   653.5600 P.3      207 DA      0.0000
    418 OP1        9.0086     2.1774   654.3414 O.co2    207 DA      0.0000
    419 OP2        8.6690     3.6111   652.3673 O.co2    207 DA      0.0000
    420 O5'        6.6755     2.1601   653.3852 O.3      207 DA      0.0000
    421 C5'        6.4632     1.2663   654.5417 C.3      207 DA      0.0000
    422 C4'        6.5360    -0.1452   654.0139 C.3      207 DA      0.0000
    423 O4'        5.2653    -0.7022   653.7916 O.3      207 DA      0.0000
    424 C3'        7.2631    -0.2433   652.6734 C.3      207 DA      0.0000
    425 O3'        8.1092    -1.3657   652.5982 O.3      207 DA      0.0000
    426 C2'        6.1215    -0.1518   651.6768 C.3      207 DA      0.0000
    427 C1'        4.8866    -0.6107   652.4007 C.3      207 DA      0.0000
    428 N9         3.7532     0.3026   652.1752 N.ar     207 DA      0.0000
    429 C8         3.7649     1.6680   651.9888 C.ar     207 DA      0.0000
    430 N7         2.5795     2.1980   651.7929 N.ar     207 DA      0.0000
    431 C5         1.7248     1.1062   651.8798 C.ar     207 DA      0.0000
    432 C6         0.3177     1.0087   651.7741 C.ar     207 DA      0.0000
    433 N6        -0.4773     2.0426   651.5616 N.pl3    207 DA      0.0000
    434 N1        -0.2068    -0.2419   651.8978 N.ar     207 DA      0.0000
    435 C2         0.5903    -1.3280   652.1224 C.ar     207 DA      0.0000
    436 N3         1.9165    -1.3042   652.2382 N.ar     207 DA      0.0000
    437 C4         2.4260    -0.0561   652.1021 C.ar     207 DA      0.0000
    438 H5'        7.2392     1.4285   655.2898 H        207 DA      0.0000
    439 H5''       5.4816     1.4498   654.9784 H        207 DA      0.0000
    440 H4'        7.0635    -0.7619   654.7416 H        207 DA      0.0000
    441 H3'        7.8790     0.6489   652.5603 H        207 DA      0.0000
    442 H2'        6.3171    -0.7964   650.8199 H        207 DA      0.0000
    443 H2''       5.9977     0.8794   651.3463 H        207 DA      0.0000
    444 H1'        4.6161    -1.6039   652.0425 H        207 DA      0.0000
    445 H8         4.6726     2.2531   652.0027 H        207 DA      0.0000
    446 H2         0.1035    -2.2877   652.2136 H        207 DA      0.0000
    447 H61       -1.4368     2.0374   651.8771 H        207 DA      0.0000
    448 H62       -0.1192     2.8522   651.0754 H        207 DA      0.0000
    449 P          8.4191    -2.3644   651.4136 P.3      206 DA      0.0000
    450 OP1        9.2186    -3.5947   651.9335 O.co2    206 DA      0.0000
    451 OP2        9.2864    -1.5804   650.4799 O.co2    206 DA      0.0000
    452 O5'        7.0416    -2.9403   650.9109 O.3      206 DA      0.0000
    453 C5'        6.5915    -4.2329   651.3667 C.3      206 DA      0.0000
    454 C4'        5.2814    -4.5172   650.6648 C.3      206 DA      0.0000
    455 O4'        4.4401    -3.4058   650.5441 O.3      206 DA      0.0000
    456 C3'        5.4554    -5.0860   649.2573 C.3      206 DA      0.0000
    457 O3'        4.9734    -6.4427   649.2259 O.3      206 DA      0.0000
    458 C2'        4.7760    -4.0519   648.3577 C.3      206 DA      0.0000
    459 C1'        3.7420    -3.4428   649.2555 C.3      206 DA      0.0000
    460 N9         3.3467    -2.0705   648.9559 N.ar     206 DA      0.0000
    461 C8         4.1372    -0.9568   648.7612 C.ar     206 DA      0.0000
    462 N7         3.4556     0.1480   648.5557 N.ar     206 DA      0.0000
    463 C5         2.1352    -0.2509   648.6303 C.ar     206 DA      0.0000
    464 C6         0.9244     0.4651   648.4968 C.ar     206 DA      0.0000
    465 N6         0.8591     1.7705   648.2536 N.pl3    206 DA      0.0000
    466 N1        -0.2159    -0.2829   648.6456 N.ar     206 DA      0.0000
    467 C2        -0.1808    -1.6055   648.8981 C.ar     206 DA      0.0000
    468 N3         0.9228    -2.3464   649.0370 N.ar     206 DA      0.0000
    469 C4         2.0445    -1.6067   648.8898 C.ar     206 DA      0.0000
    470 H5'        7.3262    -4.9965   651.1116 H        206 DA      0.0000
    471 H5''       6.4372    -4.2125   652.4456 H        206 DA      0.0000
    472 H4'        4.7512    -5.2646   651.2549 H        206 DA      0.0000
    473 H3'        6.5196    -5.0963   649.0223 H        206 DA      0.0000
    474 H2'        5.4894    -3.3010   648.0178 H        206 DA      0.0000
    475 H2''       4.3018    -4.5401   647.5064 H        206 DA      0.0000
    476 H1'        2.8646    -4.0867   649.3166 H        206 DA      0.0000
    477 H8         5.2166    -0.9897   648.7761 H        206 DA      0.0000
    478 H2        -1.1292    -2.1126   648.9972 H        206 DA      0.0000
    479 H61        0.0047     2.2220   648.5476 H        206 DA      0.0000
    480 H62        1.6109     2.2754   647.8063 H        206 DA      0.0000
    481 P          5.0370    -7.2611   647.8409 P.3      205 DT      0.0000
    482 OP1        4.8343    -8.7439   647.8990 O.co2    205 DT      0.0000
    483 OP2        6.3689    -6.8160   647.3283 O.co2    205 DT      0.0000
    484 O5'        3.6644    -6.6293   647.1377 O.3      205 DT      0.0000
    485 C5'        2.6172    -6.5333   648.1501 C.3      205 DT      0.0000
    486 C4'        1.2874    -6.5008   647.4671 C.3      205 DT      0.0000
    487 O4'        0.7838    -5.2110   647.2867 O.3      205 DT      0.0000
    488 C3'        1.2700    -7.1789   646.1059 C.3      205 DT      0.0000
    489 O3'        0.0464    -7.8748   645.8386 O.3      205 DT      0.0000
    490 C2'        1.5360    -5.9602   645.2125 C.3      205 DT      0.0000
    491 C1'        0.6509    -4.9121   645.8525 C.3      205 DT      0.0000
    492 N1         1.1780    -3.5538   645.6226 N.am     205 DT      0.0000
    493 C2         0.2611    -2.5245   645.5009 C.2      205 DT      0.0000
    494 O2        -0.9508    -2.7434   645.5377 O.2      205 DT      0.0000
    495 N3         0.7407    -1.2538   645.3335 N.am     205 DT      0.0000
    496 C4         2.0738    -0.9888   645.2850 C.2      205 DT      0.0000
    497 O4         2.4279     0.2137   645.0995 O.2      205 DT      0.0000
    498 C5         3.0002    -2.0588   645.4334 C.2      205 DT      0.0000
    499 C7         4.4875    -1.8023   645.3813 C.3      205 DT      0.0000
    500 C6         2.5159    -3.2931   645.6064 C.2      205 DT      0.0000
    501 H5'        2.6677    -7.3978   648.8121 H        205 DT      0.0000
    502 H5''       2.7524    -5.6204   648.7301 H        205 DT      0.0000
    503 H4'        0.5836    -7.0365   648.1041 H        205 DT      0.0000
    504 H3'        2.1073    -7.8730   646.0338 H        205 DT      0.0000
    505 H2'        2.5852    -5.6665   645.2431 H        205 DT      0.0000
    506 H2''       1.2207    -6.1573   644.1879 H        205 DT      0.0000
    507 H1'       -0.3828    -5.0025   645.5186 H        205 DT      0.0000
    508 H3         0.0855    -0.4904   645.2434 H        205 DT      0.0000
    509 H6         3.2084    -4.1114   645.7378 H        205 DT      0.0000
    510 H71        4.8568    -2.0055   644.3761 H        205 DT      0.0000
    511 H72        4.9936    -2.4548   646.0929 H        205 DT      0.0000
    512 H73        4.6859    -0.7617   645.6378 H        205 DT      0.0000
    513 P         -0.0796    -8.5372   644.3487 P.3      204 DT      0.0000
    514 OP1       -0.1122   -10.0595   644.4966 O.co2    204 DT      0.0000
    515 OP2        1.1988    -8.1218   643.6788 O.co2    204 DT      0.0000
    516 O5'       -1.3722    -7.9834   643.6966 O.3      204 DT      0.0000
    517 C5'       -2.5235    -7.5988   644.4480 C.3      204 DT      0.0000
    518 C4'       -3.2305    -6.5144   643.7000 C.3      204 DT      0.0000
    519 O4'       -2.6372    -5.2453   643.6430 O.3      204 DT      0.0000
    520 C3'       -3.6227    -6.7991   642.2340 C.3      204 DT      0.0000
    521 O3'       -4.8607    -6.0893   642.1302 O.3      204 DT      0.0000
    522 C2'       -2.4911    -6.0986   641.4702 C.3      204 DT      0.0000
    523 C1'       -2.5203    -4.7976   642.2459 C.3      204 DT      0.0000
    524 N1        -1.3205    -3.9626   642.1398 N.am     204 DT      0.0000
    525 C2        -1.5490    -2.5800   642.1391 C.2      204 DT      0.0000
    526 O2        -2.6937    -2.1243   642.1822 O.2      204 DT      0.0000
    527 N3        -0.4518    -1.7692   642.0857 N.am     204 DT      0.0000
    528 C4         0.8212    -2.2533   642.0260 C.2      204 DT      0.0000
    529 O4         1.7733    -1.4184   641.9636 O.2      204 DT      0.0000
    530 C5         1.0245    -3.6602   642.0342 C.2      204 DT      0.0000
    531 C7         2.4336    -4.2117   641.9728 C.3      204 DT      0.0000
    532 C6        -0.0517    -4.4495   642.1007 C.2      204 DT      0.0000
    533 H5'       -3.1869    -8.4550   644.5702 H        204 DT      0.0000
    534 H5''      -2.2166    -7.2297   645.4266 H        204 DT      0.0000
    535 H4'       -4.1733    -6.3682   644.2273 H        204 DT      0.0000
    536 H3'       -3.7096    -7.8613   642.0053 H        204 DT      0.0000
    537 H2'       -2.7247    -5.9596   640.4146 H        204 DT      0.0000
    538 H2''      -1.5421    -6.6183   641.6018 H        204 DT      0.0000
    539 H1'       -3.4009    -4.2190   641.9669 H        204 DT      0.0000
    540 H3        -0.5892    -0.7687   642.0906 H        204 DT      0.0000
    541 H6         0.0926    -5.5195   642.1244 H        204 DT      0.0000
    542 H71        3.1452    -3.3875   641.9240 H        204 DT      0.0000
    543 H72        2.5405    -4.8367   641.0862 H        204 DT      0.0000
    544 H73        2.6294    -4.8084   642.8637 H        204 DT      0.0000
    545 P         -5.9024    -6.1969   640.9840 P.3      203 DC      0.0000
    546 OP1       -7.2923    -6.3900   641.5931 O.co2    203 DC      0.0000
    547 OP2       -5.5225    -7.4151   640.2021 O.co2    203 DC      0.0000
    548 O5'       -5.7053    -4.7586   640.2446 O.3      203 DC      0.0000
    549 C5'       -6.2578    -3.6109   640.9691 C.3      203 DC      0.0000
    550 C4'       -6.7465    -2.6478   639.9186 C.3      203 DC      0.0000
    551 O4'       -5.8235    -1.6124   639.6733 O.3      203 DC      0.0000
    552 C3'       -7.0493    -3.2694   638.5541 C.3      203 DC      0.0000
    553 O3'       -8.1271    -2.6543   637.8449 O.3      203 DC      0.0000
    554 C2'       -5.6835    -3.1293   637.8680 C.3      203 DC      0.0000
    555 C1'       -5.1759    -1.7964   638.4146 C.3      203 DC      0.0000
    556 N1        -3.7013    -1.8832   638.5324 N.am     203 DC      0.0000
    557 C2        -2.9952    -0.6812   638.5496 C.2      203 DC      0.0000
    558 O2        -3.5821     0.4074   638.4810 O.2      203 DC      0.0000
    559 N3        -1.6324    -0.7567   638.6529 N.2      203 DC      0.0000
    560 C4        -0.9782    -1.9454   638.7236 C.2      203 DC      0.0000
    561 N4         0.3526    -1.9672   638.8256 N.pl3    203 DC      0.0000
    562 C5        -1.7229    -3.1576   638.6985 C.2      203 DC      0.0000
    563 C6        -3.0615    -3.0824   638.6049 C.2      203 DC      0.0000
    564 H5'       -7.0844    -3.9279   641.6050 H        203 DC      0.0000
    565 H5''      -5.4811    -3.1418   641.5730 H        203 DC      0.0000
    566 H4'       -7.6657    -2.1927   640.2873 H        203 DC      0.0000
    567 H3'       -7.2717    -4.3279   638.6883 H        203 DC      0.0000
    568 H2'       -5.7888    -3.0961   636.7836 H        203 DC      0.0000
    569 H2''      -5.0206    -3.9424   638.1640 H        203 DC      0.0000
    570 H1'       -5.4475    -0.9884   637.7352 H        203 DC      0.0000
    571 H5        -1.2248    -4.1143   638.7533 H        203 DC      0.0000
    572 H6        -3.6420    -3.9931   638.5868 H        203 DC      0.0000
    573 H41        0.8718    -1.1011   638.8462 H        203 DC      0.0000
    574 H42        0.8404    -2.8499   638.8819 H        203 DC      0.0000
    575 P         -8.2080    -2.4349   636.2128 P.3      202 DA      0.0000
    576 OP1       -9.6643    -2.3007   635.8234 O.co2    202 DA      0.0000
    577 OP2       -7.5159    -3.6227   635.6428 O.co2    202 DA      0.0000
    578 O5'       -7.5151    -1.0063   636.0473 O.3      202 DA      0.0000
    579 C5'       -8.2632     0.1834   636.5127 C.3      202 DA      0.0000
    580 C4'       -7.6807     1.2784   635.6355 C.3      202 DA      0.0000
    581 O4'       -6.2796     1.4190   635.9028 O.3      202 DA      0.0000
    582 C3'       -7.7589     0.9631   634.1311 C.3      202 DA      0.0000
    583 O3'       -7.5658     2.1262   633.3420 O.3      202 DA      0.0000
    584 C2'       -6.4786     0.1285   633.9436 C.3      202 DA      0.0000
    585 C1'       -5.5586     1.1268   634.6983 C.3      202 DA      0.0000
    586 N9        -4.2916     0.4173   634.8437 N.ar     202 DA      0.0000
    587 C8        -4.1211    -0.9471   634.9165 C.ar     202 DA      0.0000
    588 N7        -2.8679    -1.3088   635.0312 N.ar     202 DA      0.0000
    589 C5        -2.1706    -0.0875   635.0248 C.ar     202 DA      0.0000
    590 C6        -0.7800     0.1923   635.1247 C.ar     202 DA      0.0000
    591 N6         0.1605    -0.7489   635.2476 N.pl3    202 DA      0.0000
    592 N1        -0.4686     1.5181   635.0896 N.ar     202 DA      0.0000
    593 C2        -1.4227     2.4737   634.9707 C.ar     202 DA      0.0000
    594 N3        -2.7419     2.2825   634.8792 N.ar     202 DA      0.0000
    595 C4        -3.0370     0.9711   634.9068 C.ar     202 DA      0.0000
    596 H5'       -9.3342     0.0690   636.3460 H        202 DA      0.0000
    597 H5''      -8.0561     0.3814   637.5644 H        202 DA      0.0000
    598 H4'       -8.1892     2.2208   635.8394 H        202 DA      0.0000
    599 H3'       -8.6621     0.4159   633.8614 H        202 DA      0.0000
    600 H2'       -6.5327    -0.8478   634.4252 H        202 DA      0.0000
    601 H2''      -6.2037     0.0438   632.8922 H        202 DA      0.0000
    602 H1'       -5.4199     2.0337   634.1098 H        202 DA      0.0000
    603 H8        -4.9406    -1.6499   634.8825 H        202 DA      0.0000
    604 H2        -1.0803     3.4976   634.9475 H        202 DA      0.0000
    605 H61       -0.1012    -1.7241   635.2723 H        202 DA      0.0000
    606 H62        1.1330    -0.4852   635.3157 H        202 DA      0.0000
    607 P         -8.5999     2.5141   632.2011 P.3      201 DC      0.0000
    608 OP1       -9.6793     3.2460   632.9814 O.co2    201 DC      0.0000
    609 OP2       -9.1074     1.3441   631.4755 O.co2    201 DC      0.0000
    610 O5'       -7.6445     3.4302   631.2252 O.3      201 DC      0.0000
    611 C5'       -6.9157     4.5293   631.8942 C.3      201 DC      0.0000
    612 C4'       -5.5614     4.6662   631.2502 C.3      201 DC      0.0000
    613 O4'       -4.5437     3.9037   631.8874 O.3      201 DC      0.0000
    614 C3'       -5.5555     4.2393   629.7724 C.3      201 DC      0.0000
    615 O3'       -4.6521     4.9797   628.9611 O.3      201 DC      0.0000
    616 C2'       -5.0155     2.7810   629.9380 C.3      201 DC      0.0000
    617 C1'       -3.8089     3.2465   630.8336 C.3      201 DC      0.0000
    618 N1        -2.9898     2.0869   631.0715 N.am     201 DC      0.0000
    619 C2        -1.6543     2.2754   631.3887 C.2      201 DC      0.0000
    620 O2        -1.0165     3.3250   631.5291 O.2      201 DC      0.0000
    621 N3        -0.8793     1.1665   631.5869 N.2      201 DC      0.0000
    622 C4        -1.3832    -0.0998   631.4709 C.2      201 DC      0.0000
    623 N4        -0.5866    -1.1582   631.6870 N.pl3    201 DC      0.0000
    624 C5        -2.7553    -0.2773   631.1413 C.2      201 DC      0.0000
    625 C6        -3.4929     0.8226   630.9496 C.2      201 DC      0.0000
    626 H5'       -7.4716     5.4603   631.7828 H        201 DC      0.0000
    627 H5''      -6.7963     4.2985   632.9528 H        201 DC      0.0000
    628 H4'       -5.2725     5.7162   631.2970 H        201 DC      0.0000
    629 H3'       -6.5617     4.2450   629.3534 H        201 DC      0.0000
    630 H2'       -5.7090     2.1178   630.4552 H        201 DC      0.0000
    631 H2''      -4.6805     2.3606   628.9898 H        201 DC      0.0000
    632 H1'       -3.2260     3.9891   630.2887 H        201 DC      0.0000
    633 H5        -3.1860    -1.2635   631.0491 H        201 DC      0.0000
    634 H6        -4.5337     0.7054   630.6863 H        201 DC      0.0000
    635 H41        0.3843    -1.0187   631.9275 H        201 DC      0.0000
    636 H42       -0.9581    -2.0941   631.6090 H        201 DC      0.0000
    637 P          9.7372    -2.3600   665.5603 P.3      211 DG      0.0000
    638 OP1       10.8395    -3.3531   665.5587 O.co2    211 DG      0.0000
    639 OP2        8.7234    -2.8248   666.6160 O.co2    211 DG      0.0000
    640 O5'       10.1460    -0.8326   665.7387 O.3      211 DG      0.0000
    641 C5'       10.2478     0.2032   664.7386 C.3      211 DG      0.0000
    642 C4'        9.4902     1.4160   665.2375 C.3      211 DG      0.0000
    643 O4'        8.1427     1.4094   664.8183 O.3      211 DG      0.0000
    644 C3'        9.4778     1.6796   666.7297 C.3      211 DG      0.0000
    645 O3'        9.9394     3.0216   667.0416 O.3      211 DG      0.0000
    646 C2'        8.0432     1.4249   667.1515 C.3      211 DG      0.0000
    647 C1'        7.2510     1.6979   665.8959 C.3      211 DG      0.0000
    648 N9         6.0431     0.8533   665.8668 N.ar     211 DG      0.0000
    649 C8         5.9171    -0.4965   666.0957 C.ar     211 DG      0.0000
    650 N7         4.6847    -0.9432   666.0060 N.ar     211 DG      0.0000
    651 C5         3.9432     0.1920   665.6890 C.ar     211 DG      0.0000
    652 C6         2.5575     0.3815   665.4631 C.2      211 DG      0.0000
    653 O6         1.6595    -0.4607   665.4844 O.2      211 DG      0.0000
    654 N1         2.1839     1.6670   665.1816 N.am     211 DG      0.0000
    655 C2         3.0247     2.6496   665.1209 C.2      211 DG      0.0000
    656 N2         2.4219     3.7348   664.8241 N.pl3    211 DG      0.0000
    657 N3         4.4049     2.5640   665.3297 N.2      211 DG      0.0000
    658 C4         4.7636     1.3012   665.6022 C.ar     211 DG      0.0000
    659 H5'       11.2948     0.4616   664.5799 H        211 DG      0.0000
    660 H5''       9.8095    -0.1447   663.8033 H        211 DG      0.0000
    661 H4'        9.9555     2.2853   664.7727 H        211 DG      0.0000
    662 H3'       10.1271     0.9567   667.2236 H        211 DG      0.0000
    663 H2'        7.9110     0.3936   667.4785 H        211 DG      0.0000
    664 H2''       7.7513     2.1151   667.9430 H        211 DG      0.0000
    665 H1'        6.9646     2.7492   665.8639 H        211 DG      0.0000
    666 H8         6.7574    -1.1337   666.3288 H        211 DG      0.0000
    667 H1         1.2066     1.8584   665.0132 H        211 DG      0.0000
    668 H21        1.4223     3.7340   664.6798 H        211 DG      0.0000
    669 H22        2.9445     4.5943   664.7337 H        211 DG      0.0000
    670 P          9.7682     3.6716   668.4702 P.3      212 DT      0.0000
    671 OP1       10.9347     4.4766   668.9819 O.co2    212 DT      0.0000
    672 OP2        9.7117     2.4376   669.3889 O.co2    212 DT      0.0000
    673 O5'        8.3950     4.3901   668.4988 O.3      212 DT      0.0000
    674 C5'        8.2483     5.8296   668.3548 C.3      212 DT      0.0000
    675 C4'        6.7540     6.0686   668.4123 C.3      212 DT      0.0000
    676 O4'        6.0160     4.8983   668.1371 O.3      212 DT      0.0000
    677 C3'        6.2046     6.5670   669.7250 C.3      212 DT      0.0000
    678 O3'        5.6869     7.8923   669.5368 O.3      212 DT      0.0000
    679 C2'        5.1023     5.5835   670.1172 C.3      212 DT      0.0000
    680 C1'        4.7092     5.0493   668.7645 C.3      212 DT      0.0000
    681 N1         4.1144     3.7161   668.8611 N.am     212 DT      0.0000
    682 C2         2.7642     3.6124   668.6632 C.2      212 DT      0.0000
    683 O2         2.0554     4.5876   668.4250 O.2      212 DT      0.0000
    684 N3         2.2166     2.3605   668.7443 N.am     212 DT      0.0000
    685 C4         2.9491     1.2529   669.0002 C.2      212 DT      0.0000
    686 O4         2.3059     0.1718   669.0455 O.2      212 DT      0.0000
    687 C5         4.3612     1.3806   669.1999 C.2      212 DT      0.0000
    688 C7         5.2072     0.1812   669.4798 C.3      212 DT      0.0000
    689 C6         4.8883     2.6090   669.1184 C.2      212 DT      0.0000
    690 H5'        8.7529     6.3510   669.1682 H        212 DT      0.0000
    691 H5''       8.6460     6.1553   667.3936 H        212 DT      0.0000
    692 H4'        6.5060     6.8048   667.6478 H        212 DT      0.0000
    693 H3'        6.9888     6.5740   670.4821 H        212 DT      0.0000
    694 H2'        5.4812     4.7938   670.7661 H        212 DT      0.0000
    695 H2''       4.2673     6.1038   670.5865 H        212 DT      0.0000
    696 H1'        4.0707     5.7443   668.2192 H        212 DT      0.0000
    697 H3         1.2211     2.2595   668.6068 H        212 DT      0.0000
    698 H6         5.9520     2.7337   669.2588 H        212 DT      0.0000
    699 H71        5.7411    -0.1068   668.5742 H        212 DT      0.0000
    700 H72        4.5722    -0.6431   669.8045 H        212 DT      0.0000
    701 H73        5.9250     0.4181   670.2651 H        212 DT      0.0000
    702 P          5.9422     8.8631   670.8168 P.3      213 DG      0.0000
    703 OP1        6.2082    10.1817   670.1017 O.co2    213 DG      0.0000
    704 OP2        7.0767     8.3598   671.5703 O.co2    213 DG      0.0000
    705 O5'        4.4339     8.7295   671.4263 O.3      213 DG      0.0000
    706 C5'        3.4497     8.8887   670.3357 C.3      213 DG      0.0000
    707 C4'        2.1175     8.4352   670.8557 C.3      213 DG      0.0000
    708 O4'        1.8027     7.0803   670.6751 O.3      213 DG      0.0000
    709 C3'        1.9369     8.7363   672.3637 C.3      213 DG      0.0000
    710 O3'        0.7135     9.4947   672.5226 O.3      213 DG      0.0000
    711 C2'        1.9721     7.3708   673.0163 C.3      213 DG      0.0000
    712 C1'        1.3523     6.4937   671.9348 C.3      213 DG      0.0000
    713 N9         1.7334     5.0871   672.1043 N.ar     213 DG      0.0000
    714 C8         2.9521     4.5655   672.4405 C.ar     213 DG      0.0000
    715 N7         2.9821     3.2537   672.5263 N.ar     213 DG      0.0000
    716 C5         1.6785     2.8898   672.1962 C.ar     213 DG      0.0000
    717 C6         1.0649     1.6080   672.1019 C.2      213 DG      0.0000
    718 O6         1.5795     0.4963   672.2942 O.2      213 DG      0.0000
    719 N1        -0.2694     1.6396   671.7669 N.am     213 DG      0.0000
    720 C2        -0.9287     2.8097   671.5431 C.2      213 DG      0.0000
    721 N2        -2.2221     2.6492   671.2343 N.pl3    213 DG      0.0000
    722 N3        -0.4000     4.0292   671.6141 N.2      213 DG      0.0000
    723 C4         0.9035     4.0007   671.9407 C.ar     213 DG      0.0000
    724 H5'        3.3945     9.9350   670.0352 H        213 DG      0.0000
    725 H5''       3.7412     8.2751   669.4833 H        213 DG      0.0000
    726 H4'        1.3583     9.0098   670.3251 H        213 DG      0.0000
    727 H3'        2.7798     9.3295   672.7185 H        213 DG      0.0000
    728 H2'        2.9938     7.0636   673.2393 H        213 DG      0.0000
    729 H2''       1.3608     7.3593   673.9187 H        213 DG      0.0000
    730 H1'        0.2669     6.5748   671.9937 H        213 DG      0.0000
    731 H8         3.8205     5.1816   672.6211 H        213 DG      0.0000
    732 H1        -0.7748     0.7690   671.6845 H        213 DG      0.0000
    733 H21       -2.6180     1.7214   671.1840 H        213 DG      0.0000
    734 H22       -2.8016     3.4561   671.0516 H        213 DG      0.0000
    735 P          0.2805    10.0679   673.9110 P.3      214 DA      0.0000
    736 OP1        0.7858    11.4286   674.2664 O.co2    214 DA      0.0000
    737 OP2        1.0489     9.0281   674.8068 O.co2    214 DA      0.0000
    738 O5'       -1.2487     9.7299   674.1601 O.3      214 DA      0.0000
    739 C5'       -2.2099     9.4528   673.1311 C.3      214 DA      0.0000
    740 C4'       -2.9604     8.2189   673.6054 C.3      214 DA      0.0000
    741 O4'       -2.1357     7.0769   673.5150 O.3      214 DA      0.0000
    742 C3'       -3.5016     8.2639   675.0345 C.3      214 DA      0.0000
    743 O3'       -4.8741     7.8229   675.0868 O.3      214 DA      0.0000
    744 C2'       -2.5411     7.3214   675.7699 C.3      214 DA      0.0000
    745 C1'       -2.3693     6.2615   674.6923 C.3      214 DA      0.0000
    746 N9        -1.2315     5.3652   674.9207 N.ar     214 DA      0.0000
    747 C8         0.0857     5.6557   675.1365 C.ar     214 DA      0.0000
    748 N7         0.8451     4.5956   675.3015 N.ar     214 DA      0.0000
    749 C5        -0.0338     3.5320   675.1613 C.ar     214 DA      0.0000
    750 C6         0.1717     2.1358   675.2092 C.ar     214 DA      0.0000
    751 N6         1.3530     1.5537   675.4290 N.pl3    214 DA      0.0000
    752 N1        -0.9474     1.3755   675.0194 N.ar     214 DA      0.0000
    753 C2        -2.1552     1.9453   674.8017 C.ar     214 DA      0.0000
    754 N3        -2.4234     3.2492   674.7434 N.ar     214 DA      0.0000
    755 C4        -1.3107     3.9821   674.9303 C.ar     214 DA      0.0000
    756 H5'       -1.7085     9.2539   672.1839 H        214 DA      0.0000
    757 H5''      -2.8971    10.2920   673.0233 H        214 DA      0.0000
    758 H4'       -3.8072     8.0691   672.9356 H        214 DA      0.0000
    759 H3'       -3.4166     9.2738   675.4359 H        214 DA      0.0000
    760 H2'       -1.5982     7.8100   676.0154 H        214 DA      0.0000
    761 H2''      -3.0088     6.9023   676.6608 H        214 DA      0.0000
    762 H1'       -3.2877     5.6857   674.5778 H        214 DA      0.0000
    763 H8         0.4685     6.6651   675.1686 H        214 DA      0.0000
    764 H2        -2.9887     1.2731   674.6603 H        214 DA      0.0000
    765 H61        2.2495     2.0087   675.3316 H        214 DA      0.0000
    766 H62        1.4378     0.5620   675.2575 H        214 DA      0.0000
    767 P         -5.9267     8.3591   676.2282 P.3      215 DA      0.0000
    768 OP1       -7.0690     9.0841   675.5611 O.co2    215 DA      0.0000
    769 OP2       -5.0415     9.2004   677.0591 O.co2    215 DA      0.0000
    770 O5'       -6.5786     7.0032   676.7590 O.3      215 DA      0.0000
    771 C5'       -7.3287     6.1127   675.9347 C.3      215 DA      0.0000
    772 C4'       -7.1249     4.7014   676.4570 C.3      215 DA      0.0000
    773 O4'       -5.7674     4.3617   676.4852 O.3      215 DA      0.0000
    774 C3'       -7.6981     4.3714   677.8243 C.3      215 DA      0.0000
    775 O3'       -8.7150     3.3727   677.7465 O.3      215 DA      0.0000
    776 C2'       -6.4668     3.9848   678.6531 C.3      215 DA      0.0000
    777 C1'       -5.4652     3.5403   677.6593 C.3      215 DA      0.0000
    778 N9        -4.0248     3.7037   677.9273 N.ar     215 DA      0.0000
    779 C8        -3.2718     4.8469   678.0425 C.ar     215 DA      0.0000
    780 N7        -1.9890     4.6299   678.2118 N.ar     215 DA      0.0000
    781 C5        -1.8796     3.2435   678.1748 C.ar     215 DA      0.0000
    782 C6        -0.7551     2.3780   678.2952 C.ar     215 DA      0.0000
    783 N6         0.4992     2.7670   678.4869 N.pl3    215 DA      0.0000
    784 N1        -1.0266     1.0363   678.1971 N.ar     215 DA      0.0000
    785 C2        -2.3050     0.5979   678.0080 C.ar     215 DA      0.0000
    786 N3        -3.3956     1.3482   677.9001 N.ar     215 DA      0.0000
    787 C4        -3.1134     2.6633   677.9920 C.ar     215 DA      0.0000
    788 H5'       -6.9784     6.1794   674.9047 H        215 DA      0.0000
    789 H5''      -8.3864     6.3723   675.9807 H        215 DA      0.0000
    790 H4'       -7.6031     4.0295   675.7443 H        215 DA      0.0000
    791 H3'       -8.1318     5.2774   678.2475 H        215 DA      0.0000
    792 H2'       -6.0965     4.8434   679.2133 H        215 DA      0.0000
    793 H2''      -6.7113     3.1685   679.3326 H        215 DA      0.0000
    794 H1'       -5.6578     2.4961   677.4132 H        215 DA      0.0000
    795 H8        -3.6985     5.8380   677.9976 H        215 DA      0.0000
    796 H2        -2.4445    -0.4708   677.9388 H        215 DA      0.0000
    797 H61        0.7321     3.6941   678.8131 H        215 DA      0.0000
    798 H62        1.2464     2.1136   678.3001 H        215 DA      0.0000
    799 P        -10.0273     3.2835   678.7027 P.3      216 DT      0.0000
    800 OP1      -11.2772     2.9284   677.9054 O.co2    216 DT      0.0000
    801 OP2      -10.1439     4.4707   679.5233 O.co2    216 DT      0.0000
    802 O5'       -9.7471     1.8820   679.5164 O.3      216 DT      0.0000
    803 C5'       -9.1823     0.8757   678.5713 C.3      216 DT      0.0000
    804 C4'       -8.0919     0.1950   679.3590 C.3      216 DT      0.0000
    805 O4'       -6.9475     0.9960   679.5510 O.3      216 DT      0.0000
    806 C3'       -8.5535    -0.1942   680.7756 C.3      216 DT      0.0000
    807 O3'       -8.9328    -1.5580   680.7773 O.3      216 DT      0.0000
    808 C2'       -7.3651     0.1426   681.6729 C.3      216 DT      0.0000
    809 C1'       -6.2652     0.3423   680.7083 C.3      216 DT      0.0000
    810 N1        -5.1263     1.1804   681.0480 N.am     216 DT      0.0000
    811 C2        -3.8967     0.5440   681.1860 C.2      216 DT      0.0000
    812 O2        -3.8290    -0.6752   681.0979 O.2      216 DT      0.0000
    813 N3        -2.7997     1.3106   681.4400 N.am     216 DT      0.0000
    814 C4        -2.8611     2.6695   681.5601 C.2      216 DT      0.0000
    815 O4        -1.7939     3.3137   681.8153 O.2      216 DT      0.0000
    816 C5        -4.1348     3.3052   681.3885 C.2      216 DT      0.0000
    817 C7        -4.2536     4.8015   681.4760 C.3      216 DT      0.0000
    818 C6        -5.2132     2.5447   681.1328 C.2      216 DT      0.0000
    819 H5'       -9.9457     0.1585   678.2697 H        216 DT      0.0000
    820 H5''      -8.7631     1.3724   677.6963 H        216 DT      0.0000
    821 H4'       -7.7960    -0.7109   678.8299 H        216 DT      0.0000
    822 H3'       -9.4079     0.4201   681.0600 H        216 DT      0.0000
    823 H2'       -7.5525     1.0505   682.2463 H        216 DT      0.0000
    824 H2''      -7.1418    -0.6905   682.3393 H        216 DT      0.0000
    825 H1'       -5.8979    -0.6336   680.3909 H        216 DT      0.0000
    826 H3        -1.9041     0.8553   681.5437 H        216 DT      0.0000
    827 H6        -6.1720     3.0212   680.9906 H        216 DT      0.0000
    828 H71       -3.2754     5.2324   681.6891 H        216 DT      0.0000
    829 H72       -4.6239     5.1924   680.5283 H        216 DT      0.0000
    830 H73       -4.9482     5.0648   682.2738 H        216 DT      0.0000
    831 P         -9.6582    -2.3696   681.8839 P.3      217 DT      0.0000
    832 OP1      -10.3612    -3.6089   681.2718 O.co2    217 DT      0.0000
    833 OP2      -10.6301    -1.4392   682.5139 O.co2    217 DT      0.0000
    834 O5'       -8.4733    -2.9936   682.7662 O.3      217 DT      0.0000
    835 C5'       -7.7364    -4.0237   682.0545 C.3      217 DT      0.0000
    836 C4'       -6.4250    -4.2263   682.7306 C.3      217 DT      0.0000
    837 O4'       -5.5836    -3.0800   682.7073 O.3      217 DT      0.0000
    838 C3'       -6.5293    -4.6688   684.1973 C.3      217 DT      0.0000
    839 O3'       -5.6052    -5.7073   684.4613 O.3      217 DT      0.0000
    840 C2'       -6.0928    -3.3799   684.9336 C.3      217 DT      0.0000
    841 C1'       -4.9315    -3.0186   684.0300 C.3      217 DT      0.0000
    842 N1        -4.4318    -1.6891   684.3277 N.am     217 DT      0.0000
    843 C2        -3.0611    -1.4951   684.3826 C.2      217 DT      0.0000
    844 O2        -2.3149    -2.4570   684.1941 O.2      217 DT      0.0000
    845 N3        -2.5964    -0.2379   684.6485 N.am     217 DT      0.0000
    846 C4        -3.4325     0.8160   684.8555 C.2      217 DT      0.0000
    847 O4        -2.9297     1.9543   685.0788 O.2      217 DT      0.0000
    848 C5        -4.8408     0.6057   684.7904 C.2      217 DT      0.0000
    849 C7        -5.8268     1.7177   685.0003 C.3      217 DT      0.0000
    850 C6        -5.2799    -0.6354   684.5293 C.2      217 DT      0.0000
    851 H5'       -8.3030    -4.9548   682.0669 H        217 DT      0.0000
    852 H5''      -7.5717    -3.7096   681.0238 H        217 DT      0.0000
    853 H4'       -5.9045    -5.0183   682.1922 H        217 DT      0.0000
    854 H3'       -7.5469    -4.9581   684.4597 H        217 DT      0.0000
    855 H2'       -6.8719    -2.6176   684.9324 H        217 DT      0.0000
    856 H2''      -5.7537    -3.5979   685.9463 H        217 DT      0.0000
    857 H1'       -4.1352    -3.7591   684.1057 H        217 DT      0.0000
    858 H3        -1.5989    -0.0856   684.6929 H        217 DT      0.0000
    859 H6        -6.3446    -0.8087   684.4762 H        217 DT      0.0000
    860 H71       -5.2913     2.6461   685.1993 H        217 DT      0.0000
    861 H72       -6.4372     1.8354   684.1050 H        217 DT      0.0000
    862 H73       -6.4682     1.4793   685.8487 H        217 DT      0.0000
    863 P         -5.6662    -7.1529   685.0693 P.3      218 DC      0.0000
    864 OP1       -5.4675    -8.2113   684.0013 O.co2    218 DC      0.0000
    865 OP2       -6.9428    -7.2133   685.8042 O.co2    218 DC      0.0000
    866 O5'       -4.2628    -7.0617   685.8953 O.3      218 DC      0.0000
    867 C5'       -3.2880    -6.6374   684.8730 C.3      218 DC      0.0000
    868 C4'       -1.9692    -6.4576   685.5695 C.3      218 DC      0.0000
    869 O4'       -1.6706    -5.1186   685.8164 O.3      218 DC      0.0000
    870 C3'       -1.8059    -7.2511   686.8610 C.3      218 DC      0.0000
    871 O3'       -0.6630    -8.0927   686.7813 O.3      218 DC      0.0000
    872 C2'       -1.8132    -6.1369   687.9098 C.3      218 DC      0.0000
    873 C1'       -1.2520    -4.9609   687.2133 C.3      218 DC      0.0000
    874 N1        -1.8240    -3.6523   687.5454 N.am     218 DC      0.0000
    875 C2        -0.9073    -2.6348   687.8012 C.2      218 DC      0.0000
    876 O2         0.3084    -2.8512   687.8057 O.2      218 DC      0.0000
    877 N3        -1.4084    -1.3862   688.0751 N.2      218 DC      0.0000
    878 C4        -2.7497    -1.1391   688.0652 C.2      218 DC      0.0000
    879 N4        -3.1361     0.1014   688.3420 N.pl3    218 DC      0.0000
    880 C5        -3.6665    -2.1768   687.7871 C.2      218 DC      0.0000
    881 C6        -3.1587    -3.3981   687.5224 C.2      218 DC      0.0000
    882 H5'       -3.2013    -7.4003   684.0994 H        218 DC      0.0000
    883 H5''      -3.6040    -5.6935   684.4288 H        218 DC      0.0000
    884 H4'       -1.2051    -6.8233   684.8836 H        218 DC      0.0000
    885 H3'       -2.6896    -7.8730   687.0043 H        218 DC      0.0000
    886 H2'       -2.8295    -5.9342   688.2477 H        218 DC      0.0000
    887 H2''      -1.1823    -6.4108   688.7553 H        218 DC      0.0000
    888 H1'       -0.1652    -4.9426   687.2943 H        218 DC      0.0000
    889 H5        -4.7318    -1.9996   687.7866 H        218 DC      0.0000
    890 H6        -3.8377    -4.2032   687.2833 H        218 DC      0.0000
    891 H41       -2.4470     0.8124   688.5412 H        218 DC      0.0000
    892 H42       -4.1190     0.3335   688.3533 H        218 DC      0.0000
    893 P         -0.3388    -9.3662   687.7334 P.3      219 DA      0.0000
    894 OP1        0.5589   -10.2958   686.9396 O.co2    219 DA      0.0000
    895 OP2       -1.6225   -10.0101   688.0789 O.co2    219 DA      0.0000
    896 O5'        0.4297    -8.7064   689.0304 O.3      219 DA      0.0000
    897 C5'        1.5761    -7.8510   688.7351 C.3      219 DA      0.0000
    898 C4'        2.1112    -7.2438   689.9904 C.3      219 DA      0.0000
    899 O4'        1.7051    -5.8935   690.2326 O.3      219 DA      0.0000
    900 C3'        1.6996    -7.9452   691.2956 C.3      219 DA      0.0000
    901 O3'        2.6145    -7.5639   692.3256 O.3      219 DA      0.0000
    902 C2'        0.3231    -7.2849   691.5102 C.3      219 DA      0.0000
    903 C1'        0.7932    -5.8379   691.3270 C.3      219 DA      0.0000
    904 N9        -0.3658    -4.9665   691.2326 N.ar     219 DA      0.0000
    905 C8        -1.6956    -5.2627   691.1168 C.ar     219 DA      0.0000
    906 N7        -2.5009    -4.2157   691.0982 N.ar     219 DA      0.0000
    907 C5        -1.6271    -3.1429   691.2058 C.ar     219 DA      0.0000
    908 C6        -1.8426    -1.7431   691.2403 C.ar     219 DA      0.0000
    909 N6        -3.0274    -1.1653   691.1550 N.pl3    219 DA      0.0000
    910 N1        -0.7276    -0.9662   691.3728 N.ar     219 DA      0.0000
    911 C2         0.5209    -1.5233   691.4530 C.ar     219 DA      0.0000
    912 N3         0.8026    -2.8237   691.4232 N.ar     219 DA      0.0000
    913 C4        -0.3158    -3.5798   691.3002 C.ar     219 DA      0.0000
    914 H5'        2.3571    -8.4478   688.2640 H        219 DA      0.0000
    915 H5''       1.2681    -7.0578   688.0538 H        219 DA      0.0000
    916 H4'        3.1994    -7.2598   689.9315 H        219 DA      0.0000
    917 H3'        1.6288    -9.0270   691.1820 H        219 DA      0.0000
    918 H2'       -0.4074    -7.5860   690.7595 H        219 DA      0.0000
    919 H2''      -0.0489    -7.4580   692.5201 H        219 DA      0.0000
    920 H1'        1.3548    -5.5531   692.2166 H        219 DA      0.0000
    921 H8        -2.0604    -6.2767   691.0458 H        219 DA      0.0000
    922 H2         1.3548    -0.8438   691.5495 H        219 DA      0.0000
    923 H61       -3.3697    -0.2323   691.3351 H        219 DA      0.0000
    924 H62       -3.7508    -1.7959   690.8403 H        219 DA      0.0000
    925 P          4.0491    -8.2588   692.4660 P.3      220 DC      0.0000
    926 OP1        4.4928    -8.9472   691.2209 O.co2    220 DC      0.0000
    927 OP2        3.8313    -9.2077   693.6089 O.co2    220 DC      0.0000
    928 O5'        5.0196    -7.0371   692.7492 O.3      220 DC      0.0000
    929 C5'        5.5330    -6.2100   691.6615 C.3      220 DC      0.0000
    930 C4'        5.7301    -4.8632   692.3664 C.3      220 DC      0.0000
    931 O4'        4.4514    -4.3611   692.6784 O.3      220 DC      0.0000
    932 C3'        6.5076    -4.9619   693.6763 C.3      220 DC      0.0000
    933 O3'        7.6157    -4.0361   693.7442 O.3      220 DC      0.0000
    934 C2'        5.4450    -4.7179   694.7585 C.3      220 DC      0.0000
    935 C1'        4.5035    -3.8059   694.0824 C.3      220 DC      0.0000
    936 N1         3.0865    -3.7739   694.4352 N.am     220 DC      0.0000
    937 C2         2.4980    -2.5109   694.4083 C.2      220 DC      0.0000
    938 O2         3.1377    -1.4874   694.2014 O.2      220 DC      0.0000
    939 N3         1.1637    -2.4378   694.6614 N.2      220 DC      0.0000
    940 C4         0.4060    -3.5367   694.8948 C.2      220 DC      0.0000
    941 N4        -0.8903    -3.3372   695.1257 N.pl3    220 DC      0.0000
    942 C5         1.0156    -4.8214   694.9013 C.2      220 DC      0.0000
    943 C6         2.3327    -4.8857   694.6519 C.2      220 DC      0.0000
    944 H5'        6.4756    -6.5992   691.2766 H        220 DC      0.0000
    945 H5''       4.7967    -6.1230   690.8625 H        220 DC      0.0000
    946 H4'        6.2377    -4.1719   691.6938 H        220 DC      0.0000
    947 H3'        6.8905    -5.9770   693.7822 H        220 DC      0.0000
    948 H2'        4.9546    -5.6481   695.0455 H        220 DC      0.0000
    949 H2''       5.8886    -4.2343   695.6288 H        220 DC      0.0000
    950 H1'        4.9082    -2.7939   694.0691 H        220 DC      0.0000
    951 H5         0.4395    -5.7131   695.0999 H        220 DC      0.0000
    952 H6         2.8109    -5.8536   694.6222 H        220 DC      0.0000
    953 H41       -1.2668    -2.4001   695.1147 H        220 DC      0.0000
    954 H42       -1.4969    -4.1230   695.3119 H        220 DC      0.0000
    955 P         -6.7691     5.1212   696.7038 P.3      220 DG      0.0000
    956 OP1       -7.9924     5.9628   696.8825 O.co2    220 DG      0.0000
    957 OP2       -6.9259     4.0638   695.6189 O.co2    220 DG      0.0000
    958 O5'       -5.4604     6.0977   696.4965 O.3      220 DG      0.0000
    959 C5'       -4.4970     6.2430   697.5923 C.3      220 DG      0.0000
    960 C4'       -3.1097     6.3112   696.9580 C.3      220 DG      0.0000
    961 O4'       -2.5133     5.0465   696.8622 O.3      220 DG      0.0000
    962 C3'       -3.0866     6.9041   695.5517 C.3      220 DG      0.0000
    963 O3'       -1.9548     7.7642   695.2847 O.3      220 DG      0.0000
    964 C2'       -3.0724     5.6570   694.6494 C.3      220 DG      0.0000
    965 C1'       -2.2048     4.7200   695.4732 C.3      220 DG      0.0000
    966 N9        -2.5376     3.3115   695.1999 N.ar     220 DG      0.0000
    967 C8        -3.7837     2.7525   695.0433 C.ar     220 DG      0.0000
    968 N7        -3.7642     1.4645   694.8248 N.ar     220 DG      0.0000
    969 C5        -2.4114     1.1467   694.8496 C.ar     220 DG      0.0000
    970 C6        -1.7365    -0.0933   694.6932 C.2      220 DG      0.0000
    971 O6        -2.2581    -1.2001   694.4963 O.2      220 DG      0.0000
    972 N1        -0.3688    -0.0072   694.7801 N.am     220 DG      0.0000
    973 C2         0.2784     1.1632   695.0008 C.2      220 DG      0.0000
    974 N2         1.6052     1.0920   695.0641 N.pl3    220 DG      0.0000
    975 N3        -0.3081     2.3561   695.1585 N.2      220 DG      0.0000
    976 C4        -1.6500     2.2710   695.0752 C.ar     220 DG      0.0000
    977 H5'       -4.6993     7.1573   698.1501 H        220 DG      0.0000
    978 H5''      -4.5589     5.3815   698.2572 H        220 DG      0.0000
    979 H4'       -2.4796     6.9322   697.5947 H        220 DG      0.0000
    980 H3'       -4.0084     7.4603   695.3812 H        220 DG      0.0000
    981 H2'       -4.0750     5.2538   694.5067 H        220 DG      0.0000
    982 H2''      -2.6031     5.8774   693.6906 H        220 DG      0.0000
    983 H1'       -1.1504     4.9048   695.2680 H        220 DG      0.0000
    984 H8        -4.6970     3.3266   695.0960 H        220 DG      0.0000
    985 H1         0.1772    -0.8504   694.6753 H        220 DG      0.0000
    986 H21        2.0693     0.2023   694.9490 H        220 DG      0.0000
    987 H22        2.1486     1.9276   695.2273 H        220 DG      0.0000
    988 P         -1.4596     7.8059   693.7612 P.3      219 DT      0.0000
    989 OP1       -0.8083     9.1051   693.3703 O.co2    219 DT      0.0000
    990 OP2       -2.7543     7.6216   693.0607 O.co2    219 DT      0.0000
    991 O5'       -0.4092     6.6030   693.6303 O.3      219 DT      0.0000
    992 C5'        0.9940     6.9211   693.8979 C.3      219 DT      0.0000
    993 C4'        1.8601     5.9380   693.1409 C.3      219 DT      0.0000
    994 O4'        1.3163     4.6304   693.1136 O.3      219 DT      0.0000
    995 C3'        2.0725     6.3276   691.6862 C.3      219 DT      0.0000
    996 O3'        3.4007     6.0513   691.1911 O.3      219 DT      0.0000
    997 C2'        1.0213     5.5148   690.9633 C.3      219 DT      0.0000
    998 C1'        1.1353     4.2144   691.7414 C.3      219 DT      0.0000
    999 N1        -0.1508     3.5160   691.5901 N.am     219 DT      0.0000
   1000 C2        -0.1136     2.1295   691.6969 C.2      219 DT      0.0000
   1001 O2         0.9499     1.5490   691.8866 O.2      219 DT      0.0000
   1002 N3        -1.3004     1.4621   691.5767 N.am     219 DT      0.0000
   1003 C4        -2.4762     2.1157   691.3592 C.2      219 DT      0.0000
   1004 O4        -3.5323     1.4073   691.2616 O.2      219 DT      0.0000
   1005 C5        -2.4827     3.5359   691.2528 C.2      219 DT      0.0000
   1006 C7        -3.7742     4.2674   691.0238 C.3      219 DT      0.0000
   1007 C6        -1.3206     4.1825   691.3745 C.2      219 DT      0.0000
   1008 H5'        1.2113     7.9358   693.5642 H        219 DT      0.0000
   1009 H5''       1.1917     6.8366   694.9666 H        219 DT      0.0000
   1010 H4'        2.8338     5.8935   693.6288 H        219 DT      0.0000
   1011 H3'        1.8555     7.3885   691.5622 H        219 DT      0.0000
   1012 H2'        0.0298     5.9582   691.0549 H        219 DT      0.0000
   1013 H2''       1.2900     5.3696   689.9169 H        219 DT      0.0000
   1014 H1'        1.9689     3.6058   691.3908 H        219 DT      0.0000
   1015 H3        -1.3062     0.4549   691.6514 H        219 DT      0.0000
   1016 H6        -1.3070     5.2599   691.3004 H        219 DT      0.0000
   1017 H71       -4.5916     3.5497   690.9551 H        219 DT      0.0000
   1018 H72       -3.9579     4.9486   691.8547 H        219 DT      0.0000
   1019 H73       -3.7104     4.8355   690.0957 H        219 DT      0.0000
   1020 P          3.9262     7.4197   690.4127 P.3      218 DG      0.0000
   1021 OP1        4.7345     8.3251   691.2839 O.co2    218 DG      0.0000
   1022 OP2        2.6053     7.9618   690.0071 O.co2    218 DG      0.0000
   1023 O5'        4.9137     6.7784   689.3319 O.3      218 DG      0.0000
   1024 C5'        6.2348     6.3562   689.7553 C.3      218 DG      0.0000
   1025 C4'        6.3416     4.9039   689.3076 C.3      218 DG      0.0000
   1026 O4'        5.1272     4.2328   689.5783 O.3      218 DG      0.0000
   1027 C3'        6.6433     4.7233   687.8199 C.3      218 DG      0.0000
   1028 O3'        7.8075     3.9440   687.6114 O.3      218 DG      0.0000
   1029 C2'        5.3609     4.1504   687.2432 C.3      218 DG      0.0000
   1030 C1'        4.7481     3.4440   688.4293 C.3      218 DG      0.0000
   1031 N9         3.2892     3.3825   688.3057 N.ar     218 DG      0.0000
   1032 C8         2.4073     4.4137   688.1469 C.ar     218 DG      0.0000
   1033 N7         1.1562     4.0307   688.0688 N.ar     218 DG      0.0000
   1034 C5         1.2169     2.6471   688.2063 C.ar     218 DG      0.0000
   1035 C6         0.2052     1.6509   688.2158 C.2      218 DG      0.0000
   1036 O6        -1.0053     1.8237   688.1168 O.2      218 DG      0.0000
   1037 N1         0.6665     0.3738   688.3648 N.am     218 DG      0.0000
   1038 C2         2.0045     0.0916   688.4977 C.2      218 DG      0.0000
   1039 N2         2.3171    -1.1975   688.6333 N.pl3    218 DG      0.0000
   1040 N3         3.0046     0.9787   688.5020 N.2      218 DG      0.0000
   1041 C4         2.5323     2.2396   688.3513 C.ar     218 DG      0.0000
   1042 H5'        7.0035     6.9629   689.2766 H        218 DG      0.0000
   1043 H5''       6.3225     6.4237   690.8397 H        218 DG      0.0000
   1044 H4'        7.1352     4.4243   689.8806 H        218 DG      0.0000
   1045 H3'        6.8066     5.7077   687.3813 H        218 DG      0.0000
   1046 H2'        4.7071     4.9419   686.8768 H        218 DG      0.0000
   1047 H2''       5.5835     3.4393   686.4476 H        218 DG      0.0000
   1048 H1'        5.1577     2.4376   688.5163 H        218 DG      0.0000
   1049 H8         2.7125     5.4482   688.0908 H        218 DG      0.0000
   1050 H1         0.0027    -0.3873   688.3776 H        218 DG      0.0000
   1051 H21        1.5881    -1.8965   688.6343 H        218 DG      0.0000
   1052 H22        3.2828    -1.4749   688.7351 H        218 DG      0.0000
   1053 P          8.1610     2.6706   686.7451 P.3      217 DA      0.0000
   1054 OP1        9.1023     1.7451   687.5264 O.co2    217 DA      0.0000
   1055 OP2        8.8314     3.1933   685.5524 O.co2    217 DA      0.0000
   1056 O5'        6.7710     1.8391   686.5703 O.3      217 DA      0.0000
   1057 C5'        6.5163     0.9564   687.7267 C.3      217 DA      0.0000
   1058 C4'        6.5216    -0.4569   687.1989 C.3      217 DA      0.0000
   1059 O4'        5.2258    -0.9526   686.9767 O.3      217 DA      0.0000
   1060 C3'        7.2432    -0.5895   685.8584 C.3      217 DA      0.0000
   1061 O3'        8.0349    -1.7510   685.7832 O.3      217 DA      0.0000
   1062 C2'        6.1073    -0.4437   684.8619 C.3      217 DA      0.0000
   1063 C1'        4.8519    -0.8431   685.5857 C.3      217 DA      0.0000
   1064 N9         3.7634     0.1232   685.3602 N.ar     217 DA      0.0000
   1065 C8         3.8402     1.4865   685.1738 C.ar     217 DA      0.0000
   1066 N7         2.6814     2.0724   684.9779 N.ar     217 DA      0.0000
   1067 C5         1.7756     1.0227   685.0648 C.ar     217 DA      0.0000
   1068 C6         0.3654     0.9924   684.9592 C.ar     217 DA      0.0000
   1069 N6        -0.3793     2.0630   684.7467 N.pl3    217 DA      0.0000
   1070 N1        -0.2181    -0.2317   685.0829 N.ar     217 DA      0.0000
   1071 C2         0.5263    -1.3547   685.3074 C.ar     217 DA      0.0000
   1072 N3         1.8521    -1.3941   685.4233 N.ar     217 DA      0.0000
   1073 C4         2.4206    -0.1717   685.2872 C.ar     217 DA      0.0000
   1074 H5'        7.2991     1.0814   688.4748 H        217 DA      0.0000
   1075 H5''       5.5445     1.1866   688.1634 H        217 DA      0.0000
   1076 H4'        7.0191    -1.0980   687.9266 H        217 DA      0.0000
   1077 H3'        7.9010     0.2723   685.7453 H        217 DA      0.0000
   1078 H2'        6.2719    -1.0969   684.0050 H        217 DA      0.0000
   1079 H2''       6.0329     0.5923   684.5313 H        217 DA      0.0000
   1080 H1'        4.5343    -1.8223   685.2275 H        217 DA      0.0000
   1081 H8         4.7748     2.0276   685.1877 H        217 DA      0.0000
   1082 H2        -0.0058    -2.2900   685.3987 H        217 DA      0.0000
   1083 H61       -1.3380     2.1036   685.0621 H        217 DA      0.0000
   1084 H62        0.0170     2.8546   684.2605 H        217 DA      0.0000
   1085 P          8.2967    -2.7634   684.5986 P.3      216 DA      0.0000
   1086 OP1        9.0366    -4.0304   685.1185 O.co2    216 DA      0.0000
   1087 OP2        9.2004    -2.0216   683.6650 O.co2    216 DA      0.0000
   1088 O5'        6.8933    -3.2729   684.0959 O.3      216 DA      0.0000
   1089 C5'        6.3820    -4.5426   684.5518 C.3      216 DA      0.0000
   1090 C4'        5.0599    -4.7640   683.8499 C.3      216 DA      0.0000
   1091 O4'        4.2726    -3.6138   683.7291 O.3      216 DA      0.0000
   1092 C3'        5.2065    -5.3405   682.4423 C.3      216 DA      0.0000
   1093 O3'        4.6603    -6.6727   682.4109 O.3      216 DA      0.0000
   1094 C2'        4.5772    -4.2751   681.5428 C.3      216 DA      0.0000
   1095 C1'        3.5735    -3.6175   682.4405 C.3      216 DA      0.0000
   1096 N9         3.2441    -2.2279   682.1410 N.ar     216 DA      0.0000
   1097 C8         4.0869    -1.1531   681.9462 C.ar     216 DA      0.0000
   1098 N7         3.4587    -0.0171   681.7408 N.ar     216 DA      0.0000
   1099 C5         2.1208    -0.3525   681.8153 C.ar     216 DA      0.0000
   1100 C6         0.9456     0.4204   681.6818 C.ar     216 DA      0.0000
   1101 N6         0.9426     1.7275   681.4386 N.pl3    216 DA      0.0000
   1102 N1        -0.2291    -0.2723   681.8307 N.ar     216 DA      0.0000
   1103 C2        -0.2572    -1.5950   682.0832 C.ar     216 DA      0.0000
   1104 N3         0.8098    -2.3877   682.2220 N.ar     216 DA      0.0000
   1105 C4         1.9656    -1.7024   682.0748 C.ar     216 DA      0.0000
   1106 H5'        7.0795    -5.3403   684.2967 H        216 DA      0.0000
   1107 H5''       6.2289    -4.5149   685.6306 H        216 DA      0.0000
   1108 H4'        4.4946    -5.4853   684.4400 H        216 DA      0.0000
   1109 H3'        6.2691    -5.4015   682.2073 H        216 DA      0.0000
   1110 H2'        5.3256    -3.5592   681.2029 H        216 DA      0.0000
   1111 H2''       4.0802    -4.7402   680.6914 H        216 DA      0.0000
   1112 H1'        2.6663    -4.2187   682.5017 H        216 DA      0.0000
   1113 H8         5.1635    -1.2375   681.9612 H        216 DA      0.0000
   1114 H2        -1.2287    -2.0563   682.1822 H        216 DA      0.0000
   1115 H61        0.1108     2.2193   681.7327 H        216 DA      0.0000
   1116 H62        1.7176     2.1959   680.9914 H        216 DA      0.0000
   1117 P          4.6849    -7.4932   681.0259 P.3      215 DT      0.0000
   1118 OP1        4.4116    -8.9646   681.0841 O.co2    215 DT      0.0000
   1119 OP2        6.0365    -7.1121   680.5133 O.co2    215 DT      0.0000
   1120 O5'        3.3440    -6.7966   680.3228 O.3      215 DT      0.0000
   1121 C5'        2.3025    -6.6507   681.3351 C.3      215 DT      0.0000
   1122 C4'        0.9757    -6.5548   680.6522 C.3      215 DT      0.0000
   1123 O4'        0.5343    -5.2424   680.4717 O.3      215 DT      0.0000
   1124 C3'        0.9261    -7.2313   679.2909 C.3      215 DT      0.0000
   1125 O3'       -0.3294    -7.8681   679.0236 O.3      215 DT      0.0000
   1126 C2'        1.2499    -6.0267   678.3976 C.3      215 DT      0.0000
   1127 C1'        0.4158    -4.9376   679.0376 C.3      215 DT      0.0000
   1128 N1         1.0071    -3.6059   678.8076 N.am     215 DT      0.0000
   1129 C2         0.1404    -2.5341   678.6860 C.2      215 DT      0.0000
   1130 O2        -1.0806    -2.6949   678.7228 O.2      215 DT      0.0000
   1131 N3         0.6801    -1.2877   678.5186 N.am     215 DT      0.0000
   1132 C4         2.0243    -1.0866   678.4701 C.2      215 DT      0.0000
   1133 O4         2.4353     0.0977   678.2845 O.2      215 DT      0.0000
   1134 C5         2.8985    -2.1996   678.6185 C.2      215 DT      0.0000
   1135 C7         4.3964    -2.0143   678.5664 C.3      215 DT      0.0000
   1136 C6         2.3559    -3.4094   678.7914 C.2      215 DT      0.0000
   1137 H5'        2.3117    -7.5166   681.9972 H        215 DT      0.0000
   1138 H5''       2.4811    -5.7453   681.9151 H        215 DT      0.0000
   1139 H4'        0.2472    -7.0563   681.2892 H        215 DT      0.0000
   1140 H3'        1.7293    -7.9646   679.2189 H        215 DT      0.0000
   1141 H2'        2.3119    -5.7834   678.4281 H        215 DT      0.0000
   1142 H2''       0.9256    -6.2085   677.3729 H        215 DT      0.0000
   1143 H1'       -0.6210    -4.9786   678.7036 H        215 DT      0.0000
   1144 H3         0.0621    -0.4940   678.4284 H        215 DT      0.0000
   1145 H6         3.0086    -4.2598   678.9228 H        215 DT      0.0000
   1146 H71        4.7555    -2.2350   677.5612 H        215 DT      0.0000
   1147 H72        4.8708    -2.6902   679.2779 H        215 DT      0.0000
   1148 H73        4.6442    -0.9844   678.8229 H        215 DT      0.0000
   1149 P         -0.4868    -8.5237   677.5337 P.3      214 DT      0.0000
   1150 OP1       -0.5920   -10.0427   677.6817 O.co2    214 DT      0.0000
   1151 OP2        0.8099    -8.1697   676.8639 O.co2    214 DT      0.0000
   1152 O5'       -1.7515    -7.9089   676.8816 O.3      214 DT      0.0000
   1153 C5'       -2.8832    -7.4698   677.6330 C.3      214 DT      0.0000
   1154 C4'       -3.5377    -6.3528   676.8851 C.3      214 DT      0.0000
   1155 O4'       -2.8844    -5.1136   676.8281 O.3      214 DT      0.0000
   1156 C3'       -3.9430    -6.6185   675.4190 C.3      214 DT      0.0000
   1157 O3'       -5.1457    -5.8505   675.3152 O.3      214 DT      0.0000
   1158 C2'       -2.7792    -5.9728   674.6552 C.3      214 DT      0.0000
   1159 C1'       -2.7463    -4.6719   675.4310 C.3      214 DT      0.0000
   1160 N1        -1.5080    -3.8950   675.3248 N.am     214 DT      0.0000
   1161 C2        -1.6704    -2.5031   675.3242 C.2      214 DT      0.0000
   1162 O2        -2.7920    -1.9934   675.3672 O.2      214 DT      0.0000
   1163 N3        -0.5357    -1.7457   675.2707 N.am     214 DT      0.0000
   1164 C4         0.7127    -2.2899   675.2110 C.2      214 DT      0.0000
   1165 O4         1.7036    -1.5014   675.1486 O.2      214 DT      0.0000
   1166 C5         0.8487    -3.7049   675.2192 C.2      214 DT      0.0000
   1167 C7         2.2299    -4.3230   675.1578 C.3      214 DT      0.0000
   1168 C6        -0.2639    -4.4419   675.2857 C.2      214 DT      0.0000
   1169 H5'       -3.5866    -8.2934   677.7553 H        214 DT      0.0000
   1170 H5''      -2.5590    -7.1157   678.6116 H        214 DT      0.0000
   1171 H4'       -4.4723    -6.1618   677.4123 H        214 DT      0.0000
   1172 H3'       -4.0804    -7.6754   675.1903 H        214 DT      0.0000
   1173 H2'       -3.0059    -5.8228   673.5997 H        214 DT      0.0000
   1174 H2''      -1.8561    -6.5372   674.7868 H        214 DT      0.0000
   1175 H1'       -3.5983    -4.0519   675.1520 H        214 DT      0.0000
   1176 H3        -0.6252    -0.7397   675.2756 H        214 DT      0.0000
   1177 H6        -0.1709    -5.5176   675.3094 H        214 DT      0.0000
   1178 H71        2.9800    -3.5337   675.1090 H        214 DT      0.0000
   1179 H72        2.3069    -4.9524   674.2712 H        214 DT      0.0000
   1180 H73        2.3969    -4.9284   676.0487 H        214 DT      0.0000
   1181 P         -6.1913    -5.9082   674.1690 P.3      213 DC      0.0000
   1182 OP1       -7.5889    -6.0348   674.7781 O.co2    213 DC      0.0000
   1183 OP2       -5.8700    -7.1431   673.3872 O.co2    213 DC      0.0000
   1184 O5'       -5.9259    -4.4810   673.4296 O.3      213 DC      0.0000
   1185 C5'       -6.4230    -3.3083   674.1541 C.3      213 DC      0.0000
   1186 C4'       -6.8651    -2.3229   673.1036 C.3      213 DC      0.0000
   1187 O4'       -5.8938    -1.3327   672.8583 O.3      213 DC      0.0000
   1188 C3'       -7.1973    -2.9293   671.7392 C.3      213 DC      0.0000
   1189 O3'       -8.2444    -2.2636   671.0299 O.3      213 DC      0.0000
   1190 C2'       -5.8263    -2.8546   671.0530 C.3      213 DC      0.0000
   1191 C1'       -5.2557    -1.5474   671.5996 C.3      213 DC      0.0000
   1192 N1        -3.7869    -1.7045   671.7174 N.am     213 DC      0.0000
   1193 C2        -3.0243    -0.5375   671.7347 C.2      213 DC      0.0000
   1194 O2        -3.5586     0.5778   671.6660 O.2      213 DC      0.0000
   1195 N3        -1.6667    -0.6780   671.8379 N.2      213 DC      0.0000
   1196 C4        -1.0699    -1.8966   671.9087 C.2      213 DC      0.0000
   1197 N4         0.2583    -1.9818   672.0106 N.pl3    213 DC      0.0000
   1198 C5        -1.8716    -3.0718   671.8835 C.2      213 DC      0.0000
   1199 C6        -3.2051    -2.9329   671.7899 C.2      213 DC      0.0000
   1200 H5'       -7.2637    -3.5854   674.7901 H        213 DC      0.0000
   1201 H5''      -5.6247    -2.8767   674.7580 H        213 DC      0.0000
   1202 H4'       -7.7616    -1.8245   673.4724 H        213 DC      0.0000
   1203 H3'       -7.4699    -3.9760   671.8733 H        213 DC      0.0000
   1204 H2'       -5.9300    -2.8164   669.9687 H        213 DC      0.0000
   1205 H2''      -5.2030    -3.6984   671.3490 H        213 DC      0.0000
   1206 H1'       -5.4885    -0.7274   670.9202 H        213 DC      0.0000
   1207 H5        -1.4197    -4.0512   671.9383 H        213 DC      0.0000
   1208 H6        -3.8284    -3.8147   671.7718 H        213 DC      0.0000
   1209 H41        0.8182    -1.1415   672.0313 H        213 DC      0.0000
   1210 H42        0.7034    -2.8867   672.0670 H        213 DC      0.0000
   1211 P         -8.3148    -2.0406   669.3979 P.3      212 DA      0.0000
   1212 OP1       -9.7630    -1.8370   669.0084 O.co2    212 DA      0.0000
   1213 OP2       -7.6802    -3.2600   668.8278 O.co2    212 DA      0.0000
   1214 O5'       -7.5545    -0.6467   669.2324 O.3      212 DA      0.0000
   1215 C5'       -8.2450     0.5774   669.6978 C.3      212 DA      0.0000
   1216 C4'       -7.6110     1.6434   668.8205 C.3      212 DA      0.0000
   1217 O4'       -6.2047     1.7170   669.0878 O.3      212 DA      0.0000
   1218 C3'       -7.7041     1.3322   667.3161 C.3      212 DA      0.0000
   1219 O3'       -7.4557     2.4847   666.5270 O.3      212 DA      0.0000
   1220 C2'       -6.4650     0.4374   667.1286 C.3      212 DA      0.0000
   1221 C1'       -5.4985     1.3907   667.8833 C.3      212 DA      0.0000
   1222 N9        -4.2668     0.6216   668.0287 N.ar     212 DA      0.0000
   1223 C8        -4.1616    -0.7494   668.1016 C.ar     212 DA      0.0000
   1224 N7        -2.9271    -1.1705   668.2162 N.ar     212 DA      0.0000
   1225 C5        -2.1723     0.0162   668.2098 C.ar     212 DA      0.0000
   1226 C6        -0.7699     0.2292   668.3098 C.ar     212 DA      0.0000
   1227 N6         0.1245    -0.7557   668.4326 N.pl3    212 DA      0.0000
   1228 N1        -0.3956     1.5387   668.2746 N.ar     212 DA      0.0000
   1229 C2        -1.3030     2.5387   668.1557 C.ar     212 DA      0.0000
   1230 N3        -2.6299     2.4108   668.0643 N.ar     212 DA      0.0000
   1231 C4        -2.9872     1.1149   668.0918 C.ar     212 DA      0.0000
   1232 H5'       -9.3203     0.5143   669.5310 H        212 DA      0.0000
   1233 H5''      -8.0287     0.7654   670.7494 H        212 DA      0.0000
   1234 H4'       -8.0739     2.6090   669.0245 H        212 DA      0.0000
   1235 H3'       -8.6324     0.8287   667.0465 H        212 DA      0.0000
   1236 H2'       -6.5657    -0.5352   667.6103 H        212 DA      0.0000
   1237 H2''      -6.1945     0.3397   666.0773 H        212 DA      0.0000
   1238 H1'       -5.3167     2.2900   667.2949 H        212 DA      0.0000
   1239 H8        -5.0137    -1.4123   668.0675 H        212 DA      0.0000
   1240 H2        -0.9122     3.5452   668.1325 H        212 DA      0.0000
   1241 H61       -0.1834    -1.7173   668.4574 H        212 DA      0.0000
   1242 H62        1.1086    -0.5387   668.5007 H        212 DA      0.0000
   1243 P         -8.4702     2.9215   665.3861 P.3      211 DC      0.0000
   1244 OP1       -9.5134     3.7041   666.1664 O.co2    211 DC      0.0000
   1245 OP2       -9.0329     1.7771   664.6605 O.co2    211 DC      0.0000
   1246 O5'       -7.4722     3.7911   664.4102 O.3      211 DC      0.0000
   1247 C5'       -6.6918     4.8541   665.0793 C.3      211 DC      0.0000
   1248 C4'       -5.3325     4.9263   664.4352 C.3      211 DC      0.0000
   1249 O4'       -4.3523     4.1161   665.0724 O.3      211 DC      0.0000
   1250 C3'       -5.3469     4.4995   662.9574 C.3      211 DC      0.0000
   1251 O3'       -4.4092     5.1960   662.1461 O.3      211 DC      0.0000
   1252 C2'       -4.8771     3.0171   663.1231 C.3      211 DC      0.0000
   1253 C1'       -3.6497     3.4245   664.0187 C.3      211 DC      0.0000
   1254 N1        -2.8868     2.2271   664.2566 N.am     211 DC      0.0000
   1255 C2        -1.5439     2.3517   664.5737 C.2      211 DC      0.0000
   1256 O2        -0.8567     3.3697   664.7142 O.2      211 DC      0.0000
   1257 N3        -0.8227     1.2071   664.7719 N.2      211 DC      0.0000
   1258 C4        -1.3864    -0.0337   664.6559 C.2      211 DC      0.0000
   1259 N4        -0.6412    -1.1289   664.8720 N.pl3    211 DC      0.0000
   1260 C5        -2.7654    -0.1456   664.3263 C.2      211 DC      0.0000
   1261 C6        -3.4497     0.9883   664.1346 C.2      211 DC      0.0000
   1262 H5'       -7.2026     5.8106   664.9678 H        211 DC      0.0000
   1263 H5''      -6.5835     4.6179   666.1379 H        211 DC      0.0000
   1264 H4'       -4.9938     5.9613   664.4820 H        211 DC      0.0000
   1265 H3'       -6.3517     4.5533   662.5384 H        211 DC      0.0000
   1266 H2'       -5.6015     2.3878   663.6402 H        211 DC      0.0000
   1267 H2''      -4.5625     2.5812   662.1748 H        211 DC      0.0000
   1268 H1'       -3.0320     4.1385   663.4737 H        211 DC      0.0000
   1269 H5        -3.2426    -1.1100   664.2342 H        211 DC      0.0000
   1270 H6        -4.4949     0.9209   663.8713 H        211 DC      0.0000
   1271 H41        0.3353    -1.0359   665.1125 H        211 DC      0.0000
   1272 H42       -1.0570    -2.0461   664.7941 H        211 DC      0.0000
   1273 P          9.6135    -2.8218   698.7453 P.3      221 DG      0.0000
   1274 OP1       10.6672    -3.8664   698.7438 O.co2    221 DG      0.0000
   1275 OP2        8.5787    -3.2378   699.8010 O.co2    221 DG      0.0000
   1276 O5'       10.0947    -1.3158   698.9237 O.3      221 DG      0.0000
   1277 C5'       10.2459    -0.2859   697.9237 C.3      221 DG      0.0000
   1278 C4'        9.5470     0.9616   698.4225 C.3      221 DG      0.0000
   1279 O4'        8.2007     1.0193   698.0033 O.3      221 DG      0.0000
   1280 C3'        9.5472     1.2255   699.9147 C.3      221 DG      0.0000
   1281 O3'       10.0722     2.5440   700.2267 O.3      221 DG      0.0000
   1282 C2'        8.1020     1.0395   700.3366 C.3      221 DG      0.0000
   1283 C1'        7.3238     1.3500   699.0809 C.3      221 DG      0.0000
   1284 N9         6.0769     0.5641   699.0519 N.ar     221 DG      0.0000
   1285 C8         5.8867    -0.7783   699.2808 C.ar     221 DG      0.0000
   1286 N7         4.6344    -1.1657   699.1910 N.ar     221 DG      0.0000
   1287 C5         3.9479     0.0036   698.8740 C.ar     221 DG      0.0000
   1288 C6         2.5728     0.2590   698.6481 C.2      221 DG      0.0000
   1289 O6         1.6356    -0.5394   698.6694 O.2      221 DG      0.0000
   1290 N1         2.2609     1.5609   698.3666 N.am     221 DG      0.0000
   1291 C2         3.1477     2.5022   698.3060 C.2      221 DG      0.0000
   1292 N2         2.5973     3.6150   698.0092 N.pl3    221 DG      0.0000
   1293 N3         4.5222     2.3509   698.5147 N.2      221 DG      0.0000
   1294 C4         4.8202     1.0724   698.7873 C.ar     221 DG      0.0000
   1295 H5'       11.3040    -0.0778   697.7650 H        221 DG      0.0000
   1296 H5''       9.7914    -0.6125   696.9883 H        221 DG      0.0000
   1297 H4'       10.0532     1.8077   697.9578 H        221 DG      0.0000
   1298 H3'       10.1612     0.4725   700.4087 H        221 DG      0.0000
   1299 H2'        7.9208     0.0157   700.6636 H        221 DG      0.0000
   1300 H2''       7.8434     1.7429   701.1281 H        221 DG      0.0000
   1301 H1'        7.0879     2.4138   699.0490 H        221 DG      0.0000
   1302 H8         6.6956    -1.4548   699.5138 H        221 DG      0.0000
   1303 H1         1.2939     1.7988   698.1982 H        221 DG      0.0000
   1304 H21        1.5988     3.6619   697.8648 H        221 DG      0.0000
   1305 H22        3.1604     4.4486   697.9187 H        221 DG      0.0000
   1306 P          9.9323     3.2014   701.6552 P.3      222 DT      0.0000
   1307 OP1       11.1358     3.9498   702.1669 O.co2    222 DT      0.0000
   1308 OP2        9.8169     1.9714   702.5739 O.co2    222 DT      0.0000
   1309 O5'        8.5949     3.9845   701.6838 O.3      222 DT      0.0000
   1310 C5'        8.5170     5.4294   701.5398 C.3      222 DT      0.0000
   1311 C4'        7.0358     5.7395   701.5973 C.3      222 DT      0.0000
   1312 O4'        6.2428     4.6057   701.3222 O.3      222 DT      0.0000
   1313 C3'        6.5109     6.2635   702.9100 C.3      222 DT      0.0000
   1314 O3'        6.0569     7.6120   702.7218 O.3      222 DT      0.0000
   1315 C2'        5.3629     5.3337   703.3023 C.3      222 DT      0.0000
   1316 C1'        4.9447     4.8189   701.9495 C.3      222 DT      0.0000
   1317 N1         4.2870     3.5156   702.0462 N.am     222 DT      0.0000
   1318 C2         2.9334     3.4764   701.8482 C.2      222 DT      0.0000
   1319 O2         2.2719     4.4843   701.6101 O.2      222 DT      0.0000
   1320 N3         2.3267     2.2520   701.9293 N.am     222 DT      0.0000
   1321 C4         3.0055     1.1108   702.1852 C.2      222 DT      0.0000
   1322 O4         2.3115     0.0616   702.2305 O.2      222 DT      0.0000
   1323 C5         4.4221     1.1710   702.3849 C.2      222 DT      0.0000
   1324 C7         5.2099    -0.0675   702.6648 C.3      222 DT      0.0000
   1325 C6         5.0073     2.3728   702.3034 C.2      222 DT      0.0000
   1326 H5'        9.0459     5.9261   702.3532 H        222 DT      0.0000
   1327 H5''       8.9298     5.7358   700.5786 H        222 DT      0.0000
   1328 H4'        6.8232     6.4867   700.8328 H        222 DT      0.0000
   1329 H3'        7.2945     6.2331   703.6671 H        222 DT      0.0000
   1330 H2'        5.7037     4.5268   703.9511 H        222 DT      0.0000
   1331 H2''       4.5536     5.8933   703.7715 H        222 DT      0.0000
   1332 H1'        4.3402     5.5436   701.4042 H        222 DT      0.0000
   1333 H3         1.3275     2.1986   701.7918 H        222 DT      0.0000
   1334 H6         6.0756     2.4466   702.4438 H        222 DT      0.0000
   1335 H71        5.7295    -0.3806   701.7593 H        222 DT      0.0000
   1336 H72        4.5363    -0.8605   702.9896 H        222 DT      0.0000
   1337 H73        5.9382     0.1350   703.4501 H        222 DT      0.0000
   1338 P          6.3583     8.5695   704.0018 P.3      223 DG      0.0000
   1339 OP1        6.6869     9.8739   703.2867 O.co2    223 DG      0.0000
   1340 OP2        7.4675     8.0127   704.7553 O.co2    223 DG      0.0000
   1341 O5'        4.8453     8.5080   704.6113 O.3      223 DG      0.0000
   1342 C5'        3.8699     8.7140   703.5207 C.3      223 DG      0.0000
   1343 C4'        2.5175     8.3245   704.0407 C.3      223 DG      0.0000
   1344 O4'        2.1384     6.9862   703.8602 O.3      223 DG      0.0000
   1345 C3'        2.3515     8.6339   705.5488 C.3      223 DG      0.0000
   1346 O3'        1.1657     9.4498   705.7076 O.3      223 DG      0.0000
   1347 C2'        2.3215     7.2683   706.2014 C.3      223 DG      0.0000
   1348 C1'        1.6605     6.4218   705.1198 C.3      223 DG      0.0000
   1349 N9         1.9741     4.9986   705.2893 N.ar     223 DG      0.0000
   1350 C8         3.1665     4.4194   705.6255 C.ar     223 DG      0.0000
   1351 N7         3.1339     3.1078   705.7113 N.ar     223 DG      0.0000
   1352 C5         1.8145     2.8064   705.3813 C.ar     223 DG      0.0000
   1353 C6         1.1404     1.5553   705.2869 C.2      223 DG      0.0000
   1354 O6         1.6014     0.4204   705.4793 O.2      223 DG      0.0000
   1355 N1        -0.1909     1.6506   704.9519 N.am     223 DG      0.0000
   1356 C2        -0.7935     2.8508   704.7281 C.2      223 DG      0.0000
   1357 N2        -2.0932     2.7523   704.4193 N.pl3    223 DG      0.0000
   1358 N3        -0.2073     4.0437   704.7991 N.2      223 DG      0.0000
   1359 C4         1.0934     3.9530   705.1257 C.ar     223 DG      0.0000
   1360 H5'        3.8646     9.7617   703.2202 H        223 DG      0.0000
   1361 H5''       4.1318     8.0872   702.6683 H        223 DG      0.0000
   1362 H4'        1.7866     8.9348   703.5102 H        223 DG      0.0000
   1363 H3'        3.2218     9.1862   705.9036 H        223 DG      0.0000
   1364 H2'        3.3274     6.9127   706.4243 H        223 DG      0.0000
   1365 H2''       1.7104     7.2860   707.1038 H        223 DG      0.0000
   1366 H1'        0.5803     6.5546   705.1787 H        223 DG      0.0000
   1367 H8         4.0634     4.9935   705.8062 H        223 DG      0.0000
   1368 H1        -0.7372     0.8050   704.8696 H        223 DG      0.0000
   1369 H21       -2.5329     1.8444   704.3691 H        223 DG      0.0000
   1370 H22       -2.6335     3.5859   704.2366 H        223 DG      0.0000
   1371 P          0.7606    10.0431   707.0961 P.3      224 DA      0.0000
   1372 OP1        1.3302    11.3781   707.4514 O.co2    224 DA      0.0000
   1373 OP2        1.4784     8.9678   707.9918 O.co2    224 DA      0.0000
   1374 O5'       -0.7830     9.7784   707.3452 O.3      224 DA      0.0000
   1375 C5'       -1.7564     9.5475   706.3161 C.3      224 DA      0.0000
   1376 C4'       -2.5649     8.3508   706.7905 C.3      224 DA      0.0000
   1377 O4'       -1.7956     7.1707   706.7001 O.3      224 DA      0.0000
   1378 C3'       -3.1033     8.4216   708.2195 C.3      224 DA      0.0000
   1379 O3'       -4.4953     8.0466   708.2718 O.3      224 DA      0.0000
   1380 C2'       -2.1889     7.4343   708.9550 C.3      224 DA      0.0000
   1381 C1'       -2.0679     6.3674   707.8774 C.3      224 DA      0.0000
   1382 N9        -0.9741     5.4178   708.1058 N.ar     224 DA      0.0000
   1383 C8         0.3555     5.6452   708.3215 C.ar     224 DA      0.0000
   1384 N7         1.0634     4.5501   708.4865 N.ar     224 DA      0.0000
   1385 C5         0.1348     3.5296   708.3463 C.ar     224 DA      0.0000
   1386 C6         0.2734     2.1252   708.3943 C.ar     224 DA      0.0000
   1387 N6         1.4256     1.4874   708.6140 N.pl3    224 DA      0.0000
   1388 N1        -0.8807     1.4191   708.2045 N.ar     224 DA      0.0000
   1389 C2        -2.0599     2.0459   707.9867 C.ar     224 DA      0.0000
   1390 N3        -2.2656     3.3611   707.9285 N.ar     224 DA      0.0000
   1391 C4        -1.1192     4.0401   708.1153 C.ar     224 DA      0.0000
   1392 H5'       -1.2650     9.3249   705.3690 H        224 DA      0.0000
   1393 H5''      -2.4028    10.4185   706.2084 H        224 DA      0.0000
   1394 H4'       -3.4179     8.2415   706.1207 H        224 DA      0.0000
   1395 H3'       -2.9703     9.4262   708.6209 H        224 DA      0.0000
   1396 H2'       -1.2238     7.8774   709.2004 H        224 DA      0.0000
   1397 H2''      -2.6761     7.0380   709.8459 H        224 DA      0.0000
   1398 H1'       -3.0127     5.8361   707.7628 H        224 DA      0.0000
   1399 H8         0.7859     6.6352   708.3536 H        224 DA      0.0000
   1400 H2        -2.9246     1.4143   707.8453 H        224 DA      0.0000
   1401 H61        2.3428     1.8991   708.5166 H        224 DA      0.0000
   1402 H62        1.4630     0.4928   708.4425 H        224 DA      0.0000
   1403 P         -5.5211     8.6323   709.4132 P.3      225 DA      0.0000
   1404 OP1       -6.6275     9.4110   708.7462 O.co2    225 DA      0.0000
   1405 OP2       -4.5968     9.4305   710.2442 O.co2    225 DA      0.0000
   1406 O5'       -6.2370     7.3091   709.9441 O.3      225 DA      0.0000
   1407 C5'       -7.0287     6.4554   709.1197 C.3      225 DA      0.0000
   1408 C4'       -6.8925     5.0360   709.6420 C.3      225 DA      0.0000
   1409 O4'       -5.5527     4.6319   709.6702 O.3      225 DA      0.0000
   1410 C3'       -7.4807     4.7337   711.0094 C.3      225 DA      0.0000
   1411 O3'       -8.5442     3.7847   710.9315 O.3      225 DA      0.0000
   1412 C2'       -6.2693     4.2888   711.8381 C.3      225 DA      0.0000
   1413 C1'       -5.2901     3.7970   710.8443 C.3      225 DA      0.0000
   1414 N9        -3.8436     3.8915   711.1123 N.ar     225 DA      0.0000
   1415 C8        -3.0368     4.9975   711.2275 C.ar     225 DA      0.0000
   1416 N7        -1.7658     4.7195   711.3968 N.ar     225 DA      0.0000
   1417 C5        -1.7227     3.3295   711.3598 C.ar     225 DA      0.0000
   1418 C6        -0.6408     2.4114   711.4803 C.ar     225 DA      0.0000
   1419 N6         0.6307     2.7400   711.6719 N.pl3    225 DA      0.0000
   1420 N1        -0.9760     1.0841   711.3821 N.ar     225 DA      0.0000
   1421 C2        -2.2739     0.7072   711.1930 C.ar     225 DA      0.0000
   1422 N3        -3.3274     1.5087   711.0852 N.ar     225 DA      0.0000
   1423 C4        -2.9828     2.8088   711.1770 C.ar     225 DA      0.0000
   1424 H5'       -6.6756     6.5053   708.0897 H        225 DA      0.0000
   1425 H5''      -8.0728     6.7652   709.1657 H        225 DA      0.0000
   1426 H4'       -7.4022     4.3876   708.9293 H        225 DA      0.0000
   1427 H3'       -7.8708     5.6593   711.4326 H        225 DA      0.0000
   1428 H2'       -5.8585     5.1287   712.3984 H        225 DA      0.0000
   1429 H2''      -6.5525     3.4850   712.5177 H        225 DA      0.0000
   1430 H1'       -5.5323     2.7632   710.5982 H        225 DA      0.0000
   1431 H8        -3.4158     6.0078   711.1827 H        225 DA      0.0000
   1432 H2        -2.4642    -0.3536   711.1239 H        225 DA      0.0000
   1433 H61        0.9075     3.6550   711.9981 H        225 DA      0.0000
   1434 H62        1.3458     2.0517   711.4851 H        225 DA      0.0000
   1435 P         -9.8592     3.7582   711.8877 P.3      226 DT      0.0000
   1436 OP1      -11.1247     3.4631   711.0904 O.co2    226 DT      0.0000
   1437 OP2       -9.9191     4.9496   712.7084 O.co2    226 DT      0.0000
   1438 O5'       -9.6462     2.3449   712.7015 O.3      226 DT      0.0000
   1439 C5'       -9.1301     1.3128   711.7564 C.3      226 DT      0.0000
   1440 C4'       -8.0733     0.5809   712.5441 C.3      226 DT      0.0000
   1441 O4'       -6.8921     1.3263   712.7361 O.3      226 DT      0.0000
   1442 C3'       -8.5530     0.2142   713.9607 C.3      226 DT      0.0000
   1443 O3'       -8.9969    -1.1300   713.9623 O.3      226 DT      0.0000
   1444 C2'       -7.3499     0.4939   714.8579 C.3      226 DT      0.0000
   1445 C1'       -6.2417     0.6409   713.8933 C.3      226 DT      0.0000
   1446 N1        -5.0642     1.4236   714.2331 N.am     226 DT      0.0000
   1447 C2        -3.8663     0.7293   714.3710 C.2      226 DT      0.0000
   1448 O2        -3.8569    -0.4918   714.2830 O.2      226 DT      0.0000
   1449 N3        -2.7340     1.4427   714.6250 N.am     226 DT      0.0000
   1450 C4        -2.7305     2.8030   714.7451 C.2      226 DT      0.0000
   1451 O4        -1.6338     3.3955   715.0003 O.2      226 DT      0.0000
   1452 C5        -3.9724     3.4987   714.5736 C.2      226 DT      0.0000
   1453 C7        -4.0197     4.9990   714.6611 C.3      226 DT      0.0000
   1454 C6        -5.0859     2.7905   714.3178 C.2      226 DT      0.0000
   1455 H5'       -9.9268     0.6329   711.4547 H        226 DT      0.0000
   1456 H5''      -8.6876     1.7889   710.8813 H        226 DT      0.0000
   1457 H4'       -7.8211    -0.3381   712.0150 H        226 DT      0.0000
   1458 H3'       -9.3771     0.8685   714.2450 H        226 DT      0.0000
   1459 H2'       -7.4938     1.4096   715.4313 H        226 DT      0.0000
   1460 H2''      -7.1666    -0.3490   715.5243 H        226 DT      0.0000
   1461 H1'       -5.9214    -0.3515   713.5760 H        226 DT      0.0000
   1462 H3        -1.8612     0.9451   714.7287 H        226 DT      0.0000
   1463 H6        -6.0208     3.3122   714.1756 H        226 DT      0.0000
   1464 H71       -3.0220     5.3827   714.8741 H        226 DT      0.0000
   1465 H72       -4.3709     5.4071   713.7133 H        226 DT      0.0000
   1466 H73       -4.7009     5.2951   715.4589 H        226 DT      0.0000
   1467 P         -9.7603    -1.9062   715.0690 P.3      227 DT      0.0000
   1468 OP1      -10.5215    -3.1104   714.4569 O.co2    227 DT      0.0000
   1469 OP2      -10.6867    -0.9304   715.6989 O.co2    227 DT      0.0000
   1470 O5'       -8.6065    -2.5859   715.9513 O.3      227 DT      0.0000
   1471 C5'       -7.9196    -3.6500   715.2395 C.3      227 DT      0.0000
   1472 C4'       -6.6193    -3.9150   715.9157 C.3      227 DT      0.0000
   1473 O4'       -5.7241    -2.8101   715.8924 O.3      227 DT      0.0000
   1474 C3'       -6.7446    -4.3519   717.3823 C.3      227 DT      0.0000
   1475 O3'       -5.8712    -5.4334   717.6464 O.3      227 DT      0.0000
   1476 C2'       -6.2471    -3.0854   718.1186 C.3      227 DT      0.0000
   1477 C1'       -5.0699    -2.7799   717.2151 C.3      227 DT      0.0000
   1478 N1        -4.5074    -1.4757   717.5128 N.am     227 DT      0.0000
   1479 C2        -3.1290    -1.3474   717.5676 C.2      227 DT      0.0000
   1480 O2        -2.4295    -2.3437   717.3792 O.2      227 DT      0.0000
   1481 N3        -2.6048    -0.1137   717.8335 N.am     227 DT      0.0000
   1482 C4        -3.3897     0.9789   718.0405 C.2      227 DT      0.0000
   1483 O4        -2.8331     2.0918   718.2638 O.2      227 DT      0.0000
   1484 C5        -4.8064     0.8360   717.9755 C.2      227 DT      0.0000
   1485 C7        -5.7382     1.9938   718.1854 C.3      227 DT      0.0000
   1486 C6        -5.3042    -0.3828   717.7143 C.2      227 DT      0.0000
   1487 H5'       -8.5300    -4.5530   715.2519 H        227 DT      0.0000
   1488 H5''      -7.7401    -3.3441   714.2088 H        227 DT      0.0000
   1489 H4'       -6.1372    -4.7309   715.3772 H        227 DT      0.0000
   1490 H3'       -7.7749    -4.5924   717.6447 H        227 DT      0.0000
   1491 H2'       -6.9889    -2.2868   718.1174 H        227 DT      0.0000
   1492 H2''      -5.9188    -3.3193   719.1314 H        227 DT      0.0000
   1493 H1'       -4.3098    -3.5575   717.2907 H        227 DT      0.0000
   1494 H3        -1.6012    -0.0092   717.8779 H        227 DT      0.0000
   1495 H6        -6.3760    -0.5051   717.6613 H        227 DT      0.0000
   1496 H71       -5.1590     2.8955   718.3843 H        227 DT      0.0000
   1497 H72       -6.3423     2.1405   717.2901 H        227 DT      0.0000
   1498 H73       -6.3902     1.7862   719.0338 H        227 DT      0.0000
   1499 P         -6.0010    -6.8744   718.2543 P.3      228 DC      0.0000
   1500 OP1       -5.8530    -7.9411   717.1864 O.co2    228 DC      0.0000
   1501 OP2       -7.2790    -6.8739   718.9893 O.co2    228 DC      0.0000
   1502 O5'       -4.5949    -6.8503   719.0803 O.3      228 DC      0.0000
   1503 C5'       -3.6009    -6.4729   718.0581 C.3      228 DC      0.0000
   1504 C4'       -2.2750    -6.3563   718.7546 C.3      228 DC      0.0000
   1505 O4'       -1.9129    -5.0330   719.0015 O.3      228 DC      0.0000
   1506 C3'       -2.1498    -7.1567   720.0460 C.3      228 DC      0.0000
   1507 O3'       -1.0484    -8.0518   719.9664 O.3      228 DC      0.0000
   1508 C2'       -2.1039    -6.0434   721.0948 C.3      228 DC      0.0000
   1509 C1'       -1.4873    -4.8956   720.3984 C.3      228 DC      0.0000
   1510 N1        -1.9962    -3.5611   720.7305 N.am     228 DC      0.0000
   1511 C2        -1.0320    -2.5886   720.9863 C.2      228 DC      0.0000
   1512 O2         0.1720    -2.8627   720.9908 O.2      228 DC      0.0000
   1513 N3        -1.4729    -1.3174   721.2601 N.2      228 DC      0.0000
   1514 C4        -2.8009    -1.0066   721.2502 C.2      228 DC      0.0000
   1515 N4        -3.1277     0.2509   721.5271 N.pl3    228 DC      0.0000
   1516 C5        -3.7661    -1.9994   720.9722 C.2      228 DC      0.0000
   1517 C6        -3.3172    -3.2435   720.7074 C.2      228 DC      0.0000
   1518 H5'       -3.5508    -7.2392   717.2844 H        228 DC      0.0000
   1519 H5''      -3.8716    -5.5151   717.6139 H        228 DC      0.0000
   1520 H4'       -1.5293    -6.7580   718.0686 H        228 DC      0.0000
   1521 H3'       -3.0621    -7.7357   720.1893 H        228 DC      0.0000
   1522 H2'       -3.1094    -5.7925   721.4327 H        228 DC      0.0000
   1523 H2''      -1.4868    -6.3471   721.9403 H        228 DC      0.0000
   1524 H1'       -0.4008    -4.9291   720.4793 H        228 DC      0.0000
   1525 H5        -4.8218    -1.7715   720.9716 H        228 DC      0.0000
   1526 H6        -4.0338    -4.0153   720.4684 H        228 DC      0.0000
   1527 H41       -2.4054     0.9282   721.7263 H        228 DC      0.0000
   1528 H42       -4.0984     0.5296   721.5384 H        228 DC      0.0000
   1529 P         -0.7853    -9.3394   720.9184 P.3      229 DA      0.0000
   1530 OP1        0.0671   -10.3108   720.1247 O.co2    229 DA      0.0000
   1531 OP2       -2.0982    -9.9213   721.2639 O.co2    229 DA      0.0000
   1532 O5'        0.0138    -8.7170   722.2154 O.3      229 DA      0.0000
   1533 C5'        1.1997    -7.9173   721.9202 C.3      229 DA      0.0000
   1534 C4'        1.7632    -7.3363   723.1755 C.3      229 DA      0.0000
   1535 O4'        1.4220    -5.9681   723.4176 O.3      229 DA      0.0000
   1536 C3'        1.3186    -8.0173   724.4807 C.3      229 DA      0.0000
   1537 O3'        2.2507    -7.6800   725.5106 O.3      229 DA      0.0000
   1538 C2'       -0.0248    -7.2920   724.6953 C.3      229 DA      0.0000
   1539 C1'        0.5138    -5.8691   724.5120 C.3      229 DA      0.0000
   1540 N9        -0.6023    -4.9434   724.4177 N.ar     229 DA      0.0000
   1541 C8        -1.9448    -5.1758   724.3019 C.ar     229 DA      0.0000
   1542 N7        -2.6992    -4.0916   724.2833 N.ar     229 DA      0.0000
   1543 C5        -1.7752    -3.0617   724.3908 C.ar     229 DA      0.0000
   1544 C6        -1.9237    -1.6532   724.4253 C.ar     229 DA      0.0000
   1545 N6        -3.0795    -1.0195   724.3401 N.pl3    229 DA      0.0000
   1546 N1        -0.7728    -0.9303   724.5579 N.ar     229 DA      0.0000
   1547 C2         0.4476    -1.5464   724.6381 C.ar     229 DA      0.0000
   1548 N3         0.6670    -2.8588   724.6082 N.ar     229 DA      0.0000
   1549 C4        -0.4863    -3.5606   724.4852 C.ar     229 DA      0.0000
   1550 H5'        1.9514    -8.5506   721.4490 H        229 DA      0.0000
   1551 H5''       0.9300    -7.1103   721.2389 H        229 DA      0.0000
   1552 H4'        2.8494    -7.4042   723.1166 H        229 DA      0.0000
   1553 H3'        1.1962    -9.0944   724.3670 H        229 DA      0.0000
   1554 H2'       -0.7689    -7.5580   723.9445 H        229 DA      0.0000
   1555 H2''      -0.4046    -7.4472   725.7052 H        229 DA      0.0000
   1556 H1'        1.0883    -5.6114   725.4017 H        229 DA      0.0000
   1557 H8        -2.3576    -6.1713   724.2309 H        229 DA      0.0000
   1558 H2         1.3130    -0.9075   724.7345 H        229 DA      0.0000
   1559 H61       -3.3769    -0.0712   724.5201 H        229 DA      0.0000
   1560 H62       -3.8322    -1.6149   724.0253 H        229 DA      0.0000
   1561 P          3.6504    -8.4425   725.6511 P.3      230 DC      0.0000
   1562 OP1        4.0609    -9.1513   724.4060 O.co2    230 DC      0.0000
   1563 OP2        3.3877    -9.3801   726.7940 O.co2    230 DC      0.0000
   1564 O5'        4.6781    -7.2685   725.9342 O.3      230 DC      0.0000
   1565 C5'        5.2304    -6.4669   724.8465 C.3      230 DC      0.0000
   1566 C4'        5.4916    -5.1310   725.5515 C.3      230 DC      0.0000
   1567 O4'        4.2382    -4.5685   725.8635 O.3      230 DC      0.0000
   1568 C3'        6.2634    -5.2667   726.8614 C.3      230 DC      0.0000
   1569 O3'        7.4145    -4.3949   726.9293 O.3      230 DC      0.0000
   1570 C2'        5.2137    -4.9723   727.9436 C.3      230 DC      0.0000
   1571 C1'        4.3168    -4.0164   727.2674 C.3      230 DC      0.0000
   1572 N1         2.9029    -3.9169   727.6202 N.am     230 DC      0.0000
   1573 C2         2.3753    -2.6272   727.5934 C.2      230 DC      0.0000
   1574 O2         3.0631    -1.6354   727.3864 O.2      230 DC      0.0000
   1575 N3         1.0460    -2.4906   727.8465 N.2      230 DC      0.0000
   1576 C4         0.2368    -3.5520   728.0798 C.2      230 DC      0.0000
   1577 N4        -1.0485    -3.2909   728.3108 N.pl3    230 DC      0.0000
   1578 C5         0.7844    -4.8643   728.0864 C.2      230 DC      0.0000
   1579 C6         2.0969    -4.9915   727.8369 C.2      230 DC      0.0000
   1580 H5'        6.1534    -6.9007   724.4617 H        230 DC      0.0000
   1581 H5''       4.4991    -6.3448   724.0475 H        230 DC      0.0000
   1582 H4'        6.0316    -4.4647   724.8788 H        230 DC      0.0000
   1583 H3'        6.5975    -6.2989   726.9673 H        230 DC      0.0000
   1584 H2'        4.6794    -5.8781   728.2306 H        230 DC      0.0000
   1585 H2''       5.6799    -4.5104   728.8139 H        230 DC      0.0000
   1586 H1'        4.7693    -3.0249   727.2542 H        230 DC      0.0000
   1587 H5         0.1665    -5.7275   728.2849 H        230 DC      0.0000
   1588 H6         2.5284    -5.9810   727.8072 H        230 DC      0.0000
   1589 H41       -1.3799    -2.3369   728.2997 H        230 DC      0.0000
   1590 H42       -1.6919    -4.0469   728.4969 H        230 DC      0.0000
   1591 P         -6.5170     5.4383   729.8888 P.3      230 DG      0.0000
   1592 OP1       -7.6988     6.3373   730.0676 O.co2    230 DG      0.0000
   1593 OP2       -6.7241     4.3896   728.8040 O.co2    230 DG      0.0000
   1594 O5'       -5.1632     6.3513   729.6816 O.3      230 DG      0.0000
   1595 C5'       -4.1940     6.4504   730.7773 C.3      230 DG      0.0000
   1596 C4'       -2.8051     6.4523   730.1431 C.3      230 DG      0.0000
   1597 O4'       -2.2697     5.1606   730.0472 O.3      230 DG      0.0000
   1598 C3'       -2.7537     7.0435   728.7367 C.3      230 DG      0.0000
   1599 O3'       -1.5822     7.8486   728.4697 O.3      230 DG      0.0000
   1600 C2'       -2.7990     5.7971   727.8344 C.3      230 DG      0.0000
   1601 C1'       -1.9771     4.8198   728.6583 C.3      230 DG      0.0000
   1602 N9        -2.3767     3.4288   728.3849 N.ar     230 DG      0.0000
   1603 C8        -3.6481     2.9299   728.2283 C.ar     230 DG      0.0000
   1604 N7        -3.6901     1.6424   728.0099 N.ar     230 DG      0.0000
   1605 C5        -2.3539     1.2604   728.0347 C.ar     230 DG      0.0000
   1606 C6        -1.7389    -0.0103   727.8782 C.2      230 DG      0.0000
   1607 O6        -2.3128    -1.0910   727.6814 O.2      230 DG      0.0000
   1608 N1        -0.3687     0.0104   727.9651 N.am     230 DG      0.0000
   1609 C2         0.3336     1.1486   728.1858 C.2      230 DG      0.0000
   1610 N2         1.6555     1.0141   728.2491 N.pl3    230 DG      0.0000
   1611 N3        -0.1953     2.3681   728.3435 N.2      230 DG      0.0000
   1612 C4        -1.5398     2.3471   728.2602 C.ar     230 DG      0.0000
   1613 H5'       -4.3524     7.3734   731.3351 H        230 DG      0.0000
   1614 H5''      -4.2969     5.5929   731.4423 H        230 DG      0.0000
   1615 H4'       -2.1461     7.0426   730.7798 H        230 DG      0.0000
   1616 H3'       -3.6479     7.6430   728.5662 H        230 DG      0.0000
   1617 H2'       -3.8197     5.4422   727.6918 H        230 DG      0.0000
   1618 H2''      -2.3197     5.9949   726.8757 H        230 DG      0.0000
   1619 H1'       -0.9150     4.9541   728.4530 H        230 DG      0.0000
   1620 H8        -4.5329     3.5469   728.2810 H        230 DG      0.0000
   1621 H1         0.1364    -0.8579   727.8603 H        230 DG      0.0000
   1622 H21        2.0765     0.1033   728.1341 H        230 DG      0.0000
   1623 H22        2.2381     1.8229   728.4123 H        230 DG      0.0000
   1624 P         -1.0855     7.8666   726.9462 P.3      229 DT      0.0000
   1625 OP1       -0.3730     9.1333   726.5553 O.co2    229 DT      0.0000
   1626 OP2       -2.3876     7.7444   726.2457 O.co2    229 DT      0.0000
   1627 O5'       -0.0937     6.6150   726.8153 O.3      229 DT      0.0000
   1628 C5'        1.3231     6.8658   727.0830 C.3      229 DT      0.0000
   1629 C4'        2.1413     5.8425   726.3259 C.3      229 DT      0.0000
   1630 O4'        1.5357     4.5623   726.2986 O.3      229 DT      0.0000
   1631 C3'        2.3720     6.2215   724.8712 C.3      229 DT      0.0000
   1632 O3'        3.6855     5.8822   724.3761 O.3      229 DT      0.0000
   1633 C2'        1.2833     5.4598   724.1484 C.3      229 DT      0.0000
   1634 C1'        1.3351     4.1554   724.9265 C.3      229 DT      0.0000
   1635 N1         0.0171     3.5192   724.7752 N.am     229 DT      0.0000
   1636 C2        -0.0119     2.1324   724.8819 C.2      229 DT      0.0000
   1637 O2         1.0228     1.5019   725.0717 O.2      229 DT      0.0000
   1638 N3        -1.2292     1.5225   724.7618 N.am     229 DT      0.0000
   1639 C4        -2.3725     2.2314   724.5442 C.2      229 DT      0.0000
   1640 O4        -3.4612     1.5743   724.4466 O.2      229 DT      0.0000
   1641 C5        -2.3112     3.6503   724.4378 C.2      229 DT      0.0000
   1642 C7        -3.5663     4.4426   724.2089 C.3      229 DT      0.0000
   1643 C6        -1.1195     4.2408   724.5596 C.2      229 DT      0.0000
   1644 H5'        1.5886     7.8690   726.7493 H        229 DT      0.0000
   1645 H5''       1.5165     6.7720   728.1516 H        229 DT      0.0000
   1646 H4'        3.1118     5.7516   726.8139 H        229 DT      0.0000
   1647 H3'        2.2059     7.2916   724.7472 H        229 DT      0.0000
   1648 H2'        0.3141     5.9500   724.2399 H        229 DT      0.0000
   1649 H2''       1.5447     5.3019   723.1020 H        229 DT      0.0000
   1650 H1'        2.1387     3.5078   724.5758 H        229 DT      0.0000
   1651 H3        -1.2830     0.5167   724.8365 H        229 DT      0.0000
   1652 H6        -1.0545     5.3162   724.4854 H        229 DT      0.0000
   1653 H71       -4.4170     3.7648   724.1402 H        229 DT      0.0000
   1654 H72       -3.7173     5.1318   725.0398 H        229 DT      0.0000
   1655 H73       -3.4755     5.0070   723.2807 H        229 DT      0.0000
   1656 P          4.2757     7.2240   723.5977 P.3      228 DG      0.0000
   1657 OP1        5.1263     8.0898   724.4690 O.co2    228 DG      0.0000
   1658 OP2        2.9822     7.8285   723.1922 O.co2    228 DG      0.0000
   1659 O5'        5.2315     6.5362   722.5169 O.3      228 DG      0.0000
   1660 C5'        6.5310     6.0515   722.9404 C.3      228 DG      0.0000
   1661 C4'        6.5683     4.5957   722.4926 C.3      228 DG      0.0000
   1662 O4'        5.3233     3.9834   722.7634 O.3      228 DG      0.0000
   1663 C3'        6.8611     4.4010   721.0049 C.3      228 DG      0.0000
   1664 O3'        7.9868     3.5671   720.7964 O.3      228 DG      0.0000
   1665 C2'        5.5528     3.8899   720.4282 C.3      228 DG      0.0000
   1666 C1'        4.9070     3.2136   721.6143 C.3      228 DG      0.0000
   1667 N9         3.4468     3.2218   721.4908 N.ar     228 DG      0.0000
   1668 C8         2.6151     4.2939   721.3319 C.ar     228 DG      0.0000
   1669 N7         1.3472     3.9710   721.2539 N.ar     228 DG      0.0000
   1670 C5         1.3418     2.5860   721.3914 C.ar     228 DG      0.0000
   1671 C6         0.2838     1.6392   721.4009 C.2      228 DG      0.0000
   1672 O6        -0.9172     1.8696   721.3018 O.2      228 DG      0.0000
   1673 N1         0.6835     0.3416   721.5498 N.am     228 DG      0.0000
   1674 C2         2.0066    -0.0041   721.6827 C.2      228 DG      0.0000
   1675 N2         2.2573    -1.3067   721.8184 N.pl3    228 DG      0.0000
   1676 N3         3.0479     0.8343   721.6870 N.2      228 DG      0.0000
   1677 C4         2.6362     2.1162   721.5363 C.ar     228 DG      0.0000
   1678 H5'        7.3277     6.6208   722.4616 H        228 DG      0.0000
   1679 H5''       6.6218     6.1147   724.0247 H        228 DG      0.0000
   1680 H4'        7.3381     4.0789   723.0657 H        228 DG      0.0000
   1681 H3'        7.0712     5.3765   720.5663 H        228 DG      0.0000
   1682 H2'        4.9376     4.7117   720.0618 H        228 DG      0.0000
   1683 H2''       5.7412     3.1690   719.6327 H        228 DG      0.0000
   1684 H1'        5.2681     2.1888   721.7014 H        228 DG      0.0000
   1685 H8         2.9694     5.3126   721.2758 H        228 DG      0.0000
   1686 H1        -0.0158    -0.3870   721.5627 H        228 DG      0.0000
   1687 H21        1.4958    -1.9701   721.8193 H        228 DG      0.0000
   1688 H22        3.2087    -1.6298   721.9201 H        228 DG      0.0000
   1689 P          8.2791     2.2782   719.9301 P.3      227 DA      0.0000
   1690 OP1        9.1752     1.3088   720.7115 O.co2    227 DA      0.0000
   1691 OP2        8.9737     2.7684   718.7374 O.co2    227 DA      0.0000
   1692 O5'        6.8510     1.5140   719.7553 O.3      227 DA      0.0000
   1693 C5'        6.5545     0.6445   720.9118 C.3      227 DA      0.0000
   1694 C4'        6.4924    -0.7675   720.3840 C.3      227 DA      0.0000
   1695 O4'        5.1744    -1.2008   720.1617 O.3      227 DA      0.0000
   1696 C3'        7.2069    -0.9344   719.0435 C.3      227 DA      0.0000
   1697 O3'        7.9422    -2.1323   718.9683 O.3      227 DA      0.0000
   1698 C2'        6.0792    -0.7346   718.0469 C.3      227 DA      0.0000
   1699 C1'        4.8061    -1.0736   718.7707 C.3      227 DA      0.0000
   1700 N9         3.7649    -0.0565   718.5452 N.ar     227 DA      0.0000
   1701 C8         3.9067     1.3016   718.3589 C.ar     227 DA      0.0000
   1702 N7         2.7772     1.9421   718.1630 N.ar     227 DA      0.0000
   1703 C5         1.8224     0.9368   718.2498 C.ar     227 DA      0.0000
   1704 C6         0.4124     0.9738   718.1442 C.ar     227 DA      0.0000
   1705 N6        -0.2805     2.0788   717.9317 N.pl3    227 DA      0.0000
   1706 N1        -0.2289    -0.2210   718.2679 N.ar     227 DA      0.0000
   1707 C2         0.4610    -1.3782   718.4924 C.ar     227 DA      0.0000
   1708 N3         1.7834    -1.4809   718.6083 N.ar     227 DA      0.0000
   1709 C4         2.4096    -0.2870   718.4722 C.ar     227 DA      0.0000
   1710 H5'        7.3424     0.7320   721.6598 H        227 DA      0.0000
   1711 H5''       5.5948     0.9208   721.3484 H        227 DA      0.0000
   1712 H4'        6.9587    -1.4317   721.1116 H        227 DA      0.0000
   1713 H3'        7.9050    -0.1050   718.9303 H        227 DA      0.0000
   1714 H2'        6.2125    -1.3949   717.1900 H        227 DA      0.0000
   1715 H2''       6.0543     0.3038   717.7164 H        227 DA      0.0000
   1716 H1'        4.4422    -2.0366   718.4125 H        227 DA      0.0000
   1717 H8         4.8661     1.7974   718.3728 H        227 DA      0.0000
   1718 H2        -0.1151    -2.2871   718.5837 H        227 DA      0.0000
   1719 H61       -1.2361     2.1651   718.2471 H        227 DA      0.0000
   1720 H62        0.1532     2.8506   717.4455 H        227 DA      0.0000
   1721 P          8.1555    -3.1561   717.7837 P.3      226 DA      0.0000
   1722 OP1        8.8340    -4.4570   718.3036 O.co2    226 DA      0.0000
   1723 OP2        9.0935    -2.4583   716.8500 O.co2    226 DA      0.0000
   1724 O5'        6.7293    -3.5981   717.2810 O.3      226 DA      0.0000
   1725 C5'        6.1580    -4.8419   717.7368 C.3      226 DA      0.0000
   1726 C4'        4.8269    -5.0000   717.0349 C.3      226 DA      0.0000
   1727 O4'        4.0953    -3.8135   716.9141 O.3      226 DA      0.0000
   1728 C3'        4.9458    -5.5828   715.6274 C.3      226 DA      0.0000
   1729 O3'        4.3367    -6.8874   715.5959 O.3      226 DA      0.0000
   1730 C2'        4.3681    -4.4886   714.7278 C.3      226 DA      0.0000
   1731 C1'        3.3969    -3.7838   715.6256 C.3      226 DA      0.0000
   1732 N9         3.1341    -2.3801   715.3260 N.ar     226 DA      0.0000
   1733 C8         4.0272    -1.3468   715.1312 C.ar     226 DA      0.0000
   1734 N7         3.4539    -0.1821   714.9258 N.ar     226 DA      0.0000
   1735 C5         2.1016    -0.4532   715.0004 C.ar     226 DA      0.0000
   1736 C6         0.9646     0.3748   714.8669 C.ar     226 DA      0.0000
   1737 N6         1.0239     1.6806   714.6237 N.pl3    226 DA      0.0000
   1738 N1        -0.2418    -0.2610   715.0157 N.ar     226 DA      0.0000
   1739 C2        -0.3330    -1.5809   715.2682 C.ar     226 DA      0.0000
   1740 N3         0.6949    -2.4236   715.4071 N.ar     226 DA      0.0000
   1741 C4         1.8821    -1.7943   715.2599 C.ar     226 DA      0.0000
   1742 H5'        6.8166    -5.6720   717.4817 H        226 DA      0.0000
   1743 H5''       6.0064    -4.8069   718.8156 H        226 DA      0.0000
   1744 H4'        4.2278    -5.6935   717.6250 H        226 DA      0.0000
   1745 H3'        6.0042    -5.6945   715.3924 H        226 DA      0.0000
   1746 H2'        5.1497    -3.8092   714.3879 H        226 DA      0.0000
   1747 H2''       3.8494    -4.9295   713.8765 H        226 DA      0.0000
   1748 H1'        2.4620    -4.3411   715.6867 H        226 DA      0.0000
   1749 H8         5.0986    -1.4824   715.1462 H        226 DA      0.0000
   1750 H2        -1.3254    -1.9953   715.3673 H        226 DA      0.0000
   1751 H61        0.2165     2.2115   714.9177 H        226 DA      0.0000
   1752 H62        1.8204     2.1115   714.1764 H        226 DA      0.0000
   1753 P          4.3220    -7.7082   714.2109 P.3      225 DT      0.0000
   1754 OP1        3.9789    -9.1649   714.2691 O.co2    225 DT      0.0000
   1755 OP2        5.6903    -7.3920   713.6983 O.co2    225 DT      0.0000
   1756 O5'        3.0159    -6.9484   713.5078 O.3      225 DT      0.0000
   1757 C5'        1.9826    -6.7530   714.5201 C.3      225 DT      0.0000
   1758 C4'        0.6619    -6.5939   713.8372 C.3      225 DT      0.0000
   1759 O4'        0.2836    -5.2620   713.6568 O.3      225 DT      0.0000
   1760 C3'        0.5800    -7.2672   712.4759 C.3      225 DT      0.0000
   1761 O3'       -0.7044    -7.8434   712.2086 O.3      225 DT      0.0000
   1762 C2'        0.9609    -6.0794   711.5826 C.3      225 DT      0.0000
   1763 C1'        0.1798    -4.9518   712.2226 C.3      225 DT      0.0000
   1764 N1         0.8339    -3.6499   711.9926 N.am     225 DT      0.0000
   1765 C2         0.0193    -2.5379   711.8710 C.2      225 DT      0.0000
   1766 O2        -1.2079    -2.6403   711.9078 O.2      225 DT      0.0000
   1767 N3         0.6179    -1.3187   711.7036 N.am     225 DT      0.0000
   1768 C4         1.9701    -1.1820   711.6551 C.2      225 DT      0.0000
   1769 O4         2.4372    -0.0186   711.4696 O.2      225 DT      0.0000
   1770 C5         2.7903    -2.3354   711.8035 C.2      225 DT      0.0000
   1771 C7         4.2953    -2.2218   711.7514 C.3      225 DT      0.0000
   1772 C6         2.1906    -3.5179   711.9765 C.2      225 DT      0.0000
   1773 H5'        1.9504    -7.6183   715.1822 H        225 DT      0.0000
   1774 H5''       2.2042    -5.8571   715.1002 H        225 DT      0.0000
   1775 H4'       -0.0898    -7.0601   714.4742 H        225 DT      0.0000
   1776 H3'        1.3473    -8.0380   712.4039 H        225 DT      0.0000
   1777 H2'        2.0334    -5.8871   711.6132 H        225 DT      0.0000
   1778 H2''       0.6283    -6.2456   710.5580 H        225 DT      0.0000
   1779 H1'       -0.8579    -4.9433   711.8887 H        225 DT      0.0000
   1780 H3         0.0384    -0.4964   711.6135 H        225 DT      0.0000
   1781 H6         2.8019    -4.3985   712.1079 H        225 DT      0.0000
   1782 H71        4.6435    -2.4593   710.7462 H        225 DT      0.0000
   1783 H72        4.7369    -2.9195   712.4630 H        225 DT      0.0000
   1784 H73        4.5920    -1.2048   712.0079 H        225 DT      0.0000
   1785 P         -0.8929    -8.4907   710.7187 P.3      224 DT      0.0000
   1786 OP1       -1.0705   -10.0030   710.8667 O.co2    224 DT      0.0000
   1787 OP2        0.4192    -8.1991   710.0489 O.co2    224 DT      0.0000
   1788 O5'       -2.1269    -7.8163   710.0667 O.3      224 DT      0.0000
   1789 C5'       -3.2363    -7.3237   710.8181 C.3      224 DT      0.0000
   1790 C4'       -3.8367    -6.1768   710.0701 C.3      224 DT      0.0000
   1791 O4'       -3.1251    -4.9701   710.0131 O.3      224 DT      0.0000
   1792 C3'       -4.2543    -6.4229   708.6040 C.3      224 DT      0.0000
   1793 O3'       -5.4189    -5.5983   708.5003 O.3      224 DT      0.0000
   1794 C2'       -3.0610    -5.8334   707.8403 C.3      224 DT      0.0000
   1795 C1'       -2.9661    -4.5356   708.6160 C.3      224 DT      0.0000
   1796 N1        -1.6921    -3.8187   708.5098 N.am     224 DT      0.0000
   1797 C2        -1.7879    -2.4206   708.5092 C.2      224 DT      0.0000
   1798 O2        -2.8839    -1.8579   708.5523 O.2      224 DT      0.0000
   1799 N3        -0.6184    -1.7181   708.4558 N.am     224 DT      0.0000
   1800 C4         0.6027    -2.3213   708.3960 C.2      224 DT      0.0000
   1801 O4         1.6300    -1.5810   708.3336 O.2      224 DT      0.0000
   1802 C5         0.6710    -3.7412   708.4043 C.2      224 DT      0.0000
   1803 C7         2.0211    -4.4245   708.3428 C.3      224 DT      0.0000
   1804 C6        -0.4755    -4.4243   708.4707 C.2      224 DT      0.0000
   1805 H5'       -3.9782    -8.1128   710.9403 H        224 DT      0.0000
   1806 H5''      -2.8956    -6.9855   711.7966 H        224 DT      0.0000
   1807 H4'       -4.7612    -5.9414   710.5973 H        224 DT      0.0000
   1808 H3'       -4.4420    -7.4720   708.3753 H        224 DT      0.0000
   1809 H2'       -3.2803    -5.6728   706.7847 H        224 DT      0.0000
   1810 H2''      -2.1659    -6.4412   707.9719 H        224 DT      0.0000
   1811 H1'       -3.7875    -3.8756   708.3370 H        224 DT      0.0000
   1812 H3        -0.6597    -0.7090   708.4607 H        224 DT      0.0000
   1813 H6        -0.4339    -5.5032   708.4945 H        224 DT      0.0000
   1814 H71        2.8080    -3.6719   708.2940 H        224 DT      0.0000
   1815 H72        2.0679    -5.0569   707.4562 H        224 DT      0.0000
   1816 H73        2.1591    -5.0371   709.2338 H        224 DT      0.0000
   1817 P         -6.4661    -5.6061   707.3541 P.3      223 DC      0.0000
   1818 OP1       -7.8681    -5.6659   707.9632 O.co2    223 DC      0.0000
   1819 OP2       -6.2041    -6.8549   706.5722 O.co2    223 DC      0.0000
   1820 O5'       -6.1329    -4.1932   706.6146 O.3      223 DC      0.0000
   1821 C5'       -6.5735    -2.9981   707.3392 C.3      223 DC      0.0000
   1822 C4'       -6.9681    -1.9928   706.2886 C.3      223 DC      0.0000
   1823 O4'       -5.9506    -1.0500   706.0433 O.3      223 DC      0.0000
   1824 C3'       -7.3288    -2.5826   704.9242 C.3      223 DC      0.0000
   1825 O3'       -8.3430    -1.8676   704.2149 O.3      223 DC      0.0000
   1826 C2'       -5.9559    -2.5734   704.2381 C.3      223 DC      0.0000
   1827 C1'       -5.3235    -1.2949   704.7847 C.3      223 DC      0.0000
   1828 N1        -3.8639    -1.5219   704.9025 N.am     223 DC      0.0000
   1829 C2        -3.0465    -0.3926   704.9197 C.2      223 DC      0.0000
   1830 O2        -3.5270     0.7470   704.8510 O.2      223 DC      0.0000
   1831 N3        -1.6971    -0.5977   705.0229 N.2      223 DC      0.0000
   1832 C4        -1.1591    -1.8434   705.0937 C.2      223 DC      0.0000
   1833 N4         0.1635    -1.9919   705.1956 N.pl3    223 DC      0.0000
   1834 C5        -2.0160    -2.9790   705.0686 C.2      223 DC      0.0000
   1835 C6        -3.3414    -2.7766   704.9750 C.2      223 DC      0.0000
   1836 H5'       -7.4265    -3.2348   707.9751 H        223 DC      0.0000
   1837 H5''      -5.7556    -2.6051   707.9431 H        223 DC      0.0000
   1838 H4'       -7.8398    -1.4521   706.6574 H        223 DC      0.0000
   1839 H3'       -7.6511    -3.6151   705.0584 H        223 DC      0.0000
   1840 H2'       -6.0576    -2.5303   703.1537 H        223 DC      0.0000
   1841 H2''      -5.3735    -3.4459   704.5340 H        223 DC      0.0000
   1842 H1'       -5.5169    -0.4647   704.1053 H        223 DC      0.0000
   1843 H5        -1.6114    -3.9788   705.1233 H        223 DC      0.0000
   1844 H6        -4.0060    -3.6277   704.9569 H        223 DC      0.0000
   1845 H41        0.7628    -1.1792   705.2163 H        223 DC      0.0000
   1846 H42        0.5649    -2.9170   705.2520 H        223 DC      0.0000
   1847 P         -8.4027    -1.6415   702.5829 P.3      222 DA      0.0000
   1848 OP1       -9.8396    -1.3691   702.1934 O.co2    222 DA      0.0000
   1849 OP2       -7.8270    -2.8899   702.0129 O.co2    222 DA      0.0000
   1850 O5'       -7.5768    -0.2855   702.4174 O.3      222 DA      0.0000
   1851 C5'       -8.2081     0.9702   702.8828 C.3      222 DA      0.0000
   1852 C4'       -7.5239     2.0047   702.0055 C.3      222 DA      0.0000
   1853 O4'       -6.1157     2.0111   702.2729 O.3      222 DA      0.0000
   1854 C3'       -7.6318     1.6982   700.5011 C.3      222 DA      0.0000
   1855 O3'       -7.3287     2.8376   699.7121 O.3      222 DA      0.0000
   1856 C2'       -6.4368     0.7454   700.3137 C.3      222 DA      0.0000
   1857 C1'       -5.4259     1.6514   701.0683 C.3      222 DA      0.0000
   1858 N9        -4.2323     0.8244   701.2137 N.ar     222 DA      0.0000
   1859 C8        -4.1927    -0.5500   701.2866 C.ar     222 DA      0.0000
   1860 N7        -2.9796    -1.0295   701.4012 N.ar     222 DA      0.0000
   1861 C5        -2.1691     0.1198   701.3949 C.ar     222 DA      0.0000
   1862 C6        -0.7581     0.2657   701.4948 C.ar     222 DA      0.0000
   1863 N6         0.0883    -0.7608   701.6176 N.pl3    222 DA      0.0000
   1864 N1        -0.3217     1.5559   701.4596 N.ar     222 DA      0.0000
   1865 C2        -1.1804     2.5980   701.3408 C.ar     222 DA      0.0000
   1866 N3        -2.5119     2.5335   701.2493 N.ar     222 DA      0.0000
   1867 C4        -2.9306     1.2562   701.2768 C.ar     222 DA      0.0000
   1868 H5'       -9.2852     0.9584   702.7161 H        222 DA      0.0000
   1869 H5''      -7.9830     1.1475   703.9345 H        222 DA      0.0000
   1870 H4'       -7.9402     2.9912   702.2095 H        222 DA      0.0000
   1871 H3'       -8.5830     1.2396   700.2315 H        222 DA      0.0000
   1872 H2'       -6.5837    -0.2213   700.7953 H        222 DA      0.0000
   1873 H2''      -6.1713     0.6349   699.2623 H        222 DA      0.0000
   1874 H1'       -5.2014     2.5411   700.4799 H        222 DA      0.0000
   1875 H8        -5.0753    -1.1715   701.2526 H        222 DA      0.0000
   1876 H2        -0.7420     3.5847   701.3176 H        222 DA      0.0000
   1877 H61       -0.2651    -1.7066   701.6424 H        222 DA      0.0000
   1878 H62        1.0816    -0.5909   701.6857 H        222 DA      0.0000
   1879 P         -8.3212     3.3223   698.5712 P.3      221 DC      0.0000
   1880 OP1       -9.3259     4.1538   699.3514 O.co2    221 DC      0.0000
   1881 OP2       -8.9378     2.2061   697.8456 O.co2    221 DC      0.0000
   1882 O5'       -7.2828     4.1432   697.5953 O.3      221 DC      0.0000
   1883 C5'       -6.4526     5.1678   698.2643 C.3      221 DC      0.0000
   1884 C4'       -5.0914     5.1751   697.6203 C.3      221 DC      0.0000
   1885 O4'       -4.1510     4.3190   698.2574 O.3      221 DC      0.0000
   1886 C3'       -5.1261     4.7495   696.1425 C.3      221 DC      0.0000
   1887 O3'       -4.1563     5.4004   695.3312 O.3      221 DC      0.0000
   1888 C2'       -4.7276     3.2463   696.3081 C.3      221 DC      0.0000
   1889 C1'       -3.4821     3.5947   697.2037 C.3      221 DC      0.0000
   1890 N1        -2.7772     2.3623   697.4416 N.am     221 DC      0.0000
   1891 C2        -1.4299     2.4227   697.7587 C.2      221 DC      0.0000
   1892 O2        -0.6950     3.4067   697.8992 O.2      221 DC      0.0000
   1893 N3        -0.7641     1.2450   697.9570 N.2      221 DC      0.0000
   1894 C4        -1.3864     0.0325   697.8410 C.2      221 DC      0.0000
   1895 N4        -0.6943    -1.0970   698.0570 N.pl3    221 DC      0.0000
   1896 C5        -2.7692    -0.0134   697.5113 C.2      221 DC      0.0000
   1897 C6        -3.3986     1.1517   697.3196 C.2      221 DC      0.0000
   1898 H5'       -6.9172     6.1476   698.1528 H        221 DC      0.0000
   1899 H5''      -6.3557     4.9267   699.3229 H        221 DC      0.0000
   1900 H4'       -4.7037     6.1927   697.6670 H        221 DC      0.0000
   1901 H3'       -6.1272     4.8511   695.7235 H        221 DC      0.0000
   1902 H2'       -5.4812     2.6523   696.8252 H        221 DC      0.0000
   1903 H2''      -4.4342     2.7959   695.3599 H        221 DC      0.0000
   1904 H1'       -2.8311     4.2784   696.6588 H        221 DC      0.0000
   1905 H5        -3.2919    -0.9541   697.4192 H        221 DC      0.0000
   1906 H6        -4.4459     1.1343   697.0564 H        221 DC      0.0000
   1907 H41        0.2855    -1.0507   698.2975 H        221 DC      0.0000
   1908 H42       -1.1534    -1.9933   697.9791 H        221 DC      0.0000
   1909 P          9.4679    -3.2773   731.9303 P.3      231 DG      0.0000
   1910 OP1       10.4706    -4.3710   731.9288 O.co2    231 DG      0.0000
   1911 OP2        8.4145    -3.6434   732.9860 O.co2    231 DG      0.0000
   1912 O5'       10.0204    -1.7959   732.1087 O.3      231 DG      0.0000
   1913 C5'       10.2205    -0.7744   731.1087 C.3      231 DG      0.0000
   1914 C4'        9.5820     0.5051   731.6075 C.3      231 DG      0.0000
   1915 O4'        8.2400     0.6269   731.1884 O.3      231 DG      0.0000
   1916 C3'        9.5948     0.7686   733.0997 C.3      231 DG      0.0000
   1917 O3'       10.1821     2.0605   733.4117 O.3      231 DG      0.0000
   1918 C2'        8.1424     0.6518   733.5216 C.3      231 DG      0.0000
   1919 C1'        7.3798     0.9991   732.2660 C.3      231 DG      0.0000
   1920 N9         6.0969     0.2735   732.2369 N.ar     231 DG      0.0000
   1921 C8         5.8428    -1.0582   732.4658 C.ar     231 DG      0.0000
   1922 N7         4.5735    -1.3855   732.3761 N.ar     231 DG      0.0000
   1923 C5         3.9436    -0.1848   732.0591 C.ar     231 DG      0.0000
   1924 C6         2.5822     0.1360   731.8332 C.2      231 DG      0.0000
   1925 O6         1.6080    -0.6168   731.8544 O.2      231 DG      0.0000
   1926 N1         2.3328     1.4513   731.5516 N.am     231 DG      0.0000
   1927 C2         3.2635     2.3492   731.4910 C.2      231 DG      0.0000
   1928 N2         2.7668     3.4870   731.1942 N.pl3    231 DG      0.0000
   1929 N3         4.6292     2.1324   731.6997 N.2      231 DG      0.0000
   1930 C4         4.8659     0.8412   731.9723 C.ar     231 DG      0.0000
   1931 H5'       11.2874    -0.6171   730.9500 H        231 DG      0.0000
   1932 H5''       9.7510    -1.0790   730.1734 H        231 DG      0.0000
   1933 H4'       10.1280     1.3260   731.1428 H        231 DG      0.0000
   1934 H3'       10.1722    -0.0129   733.5937 H        231 DG      0.0000
   1935 H2'        7.9125    -0.3622   733.8486 H        231 DG      0.0000
   1936 H2''       7.9176     1.3667   734.3131 H        231 DG      0.0000
   1937 H1'        7.1950     2.0728   732.2340 H        231 DG      0.0000
   1938 H8         6.6186    -1.7726   732.6989 H        231 DG      0.0000
   1939 H1         1.3782     1.7350   731.3833 H        231 DG      0.0000
   1940 H21        1.7717     3.5815   731.0498 H        231 DG      0.0000
   1941 H22        3.3690     4.2927   731.1038 H        231 DG      0.0000
   1942 P         10.0737     2.7239   734.8403 P.3      232 DT      0.0000
   1943 OP1       11.3116     3.4140   735.3519 O.co2    232 DT      0.0000
   1944 OP2        9.8998     1.5008   735.7589 O.co2    232 DT      0.0000
   1945 O5'        8.7752     3.5699   734.8688 O.3      232 DT      0.0000
   1946 C5'        8.7664     5.0169   734.7248 C.3      232 DT      0.0000
   1947 C4'        7.3017     5.3973   734.7824 C.3      232 DT      0.0000
   1948 O4'        6.4554     4.3026   734.5072 O.3      232 DT      0.0000
   1949 C3'        6.8023     5.9458   736.0951 C.3      232 DT      0.0000
   1950 O3'        6.4132     7.3143   735.9069 O.3      232 DT      0.0000
   1951 C2'        5.6112     5.0718   736.4873 C.3      232 DT      0.0000
   1952 C1'        5.1690     4.5775   735.1346 C.3      232 DT      0.0000
   1953 N1         4.4499     3.3070   735.2312 N.am     232 DT      0.0000
   1954 C2         3.0960     3.3325   735.0333 C.2      232 DT      0.0000
   1955 O2         2.4833     4.3708   734.7951 O.2      232 DT      0.0000
   1956 N3         2.4315     2.1384   735.1143 N.am     232 DT      0.0000
   1957 C4         3.0551     0.9662   735.3702 C.2      232 DT      0.0000
   1958 O4         2.3118    -0.0488   735.4155 O.2      232 DT      0.0000
   1959 C5         4.4730     0.9587   735.5699 C.2      232 DT      0.0000
   1960 C7         5.2007    -0.3159   735.8498 C.3      232 DT      0.0000
   1961 C6         5.1148     2.1312   735.4884 C.2      232 DT      0.0000
   1962 H5'        9.3184     5.4878   735.5383 H        232 DT      0.0000
   1963 H5''       9.1933     5.3032   733.7637 H        232 DT      0.0000
   1964 H4'        7.1249     6.1538   734.0178 H        232 DT      0.0000
   1965 H3'        7.5835     5.8780   736.8522 H        232 DT      0.0000
   1966 H2'        5.9132     4.2496   737.1361 H        232 DT      0.0000
   1967 H2''       4.8296     5.6693   736.9565 H        232 DT      0.0000
   1968 H1'        4.5997     5.3302   734.5892 H        232 DT      0.0000
   1969 H3         1.4309     2.1328   734.9768 H        232 DT      0.0000
   1970 H6         6.1854     2.1539   735.6288 H        232 DT      0.0000
   1971 H71        5.7048    -0.6535   734.9443 H        232 DT      0.0000
   1972 H72        4.4901    -1.0759   736.1746 H        232 DT      0.0000
   1973 H73        5.9379    -0.1485   736.6351 H        232 DT      0.0000
   1974 P          6.7599     8.2564   737.1868 P.3      233 DG      0.0000
   1975 OP1        7.1504     9.5436   736.4718 O.co2    233 DG      0.0000
   1976 OP2        7.8413     7.6473   737.9404 O.co2    233 DG      0.0000
   1977 O5'        5.2457     8.2672   737.7964 O.3      233 DG      0.0000
   1978 C5'        4.2812     8.5195   736.7058 C.3      233 DG      0.0000
   1979 C4'        2.9118     8.1949   737.2258 C.3      233 DG      0.0000
   1980 O4'        2.4693     6.8763   737.0452 O.3      233 DG      0.0000
   1981 C3'        2.7608     8.5119   738.7338 C.3      233 DG      0.0000
   1982 O3'        1.6152     9.3834   738.8927 O.3      233 DG      0.0000
   1983 C2'        2.6656     7.1493   739.3864 C.3      233 DG      0.0000
   1984 C1'        1.9650     6.3353   738.3049 C.3      233 DG      0.0000
   1985 N9         2.2103     4.8987   738.4744 N.ar     233 DG      0.0000
   1986 C8         3.3738     4.2633   738.8106 C.ar     233 DG      0.0000
   1987 N7         3.2786     2.9547   738.8963 N.ar     233 DG      0.0000
   1988 C5         1.9463     2.7167   738.5663 C.ar     233 DG      0.0000
   1989 C6         1.2133     1.4992   738.4720 C.2      233 DG      0.0000
   1990 O6         1.6196     0.3435   738.6643 O.2      233 DG      0.0000
   1991 N1        -0.1119     1.6578   738.1369 N.am     233 DG      0.0000
   1992 C2        -0.6566     2.8854   737.9132 C.2      233 DG      0.0000
   1993 N2        -1.9595     2.8490   737.6043 N.pl3    233 DG      0.0000
   1994 N3        -0.0141     4.0490   737.9842 N.2      233 DG      0.0000
   1995 C4         1.2807     3.8963   738.3108 C.ar     233 DG      0.0000
   1996 H5'        4.3259     9.5663   736.4053 H        233 DG      0.0000
   1997 H5''       4.5129     7.8808   735.8534 H        233 DG      0.0000
   1998 H4'        2.2109     8.8394   736.6952 H        233 DG      0.0000
   1999 H3'        3.6564     9.0221   739.0886 H        233 DG      0.0000
   2000 H2'        3.6534     6.7461   739.6093 H        233 DG      0.0000
   2001 H2''       2.0560     7.1961   740.2888 H        233 DG      0.0000
   2002 H1'        0.8923     6.5195   738.3638 H        233 DG      0.0000
   2003 H8         4.2970     4.7939   738.9912 H        233 DG      0.0000
   2004 H1        -0.6980     0.8393   738.0546 H        233 DG      0.0000
   2005 H21       -2.4420     1.9631   737.5541 H        233 DG      0.0000
   2006 H22       -2.4594     3.7074   737.4217 H        233 DG      0.0000
   2007 P          1.2389     9.9953   740.2811 P.3      234 DA      0.0000
   2008 OP1        1.8715    11.3017   740.6365 O.co2    234 DA      0.0000
   2009 OP2        1.9046     8.8870   741.1768 O.co2    234 DA      0.0000
   2010 O5'       -0.3156     9.8046   740.5302 O.3      234 DA      0.0000
   2011 C5'       -1.2989     9.6204   739.5012 C.3      234 DA      0.0000
   2012 C4'       -2.1636     8.4636   739.9755 C.3      234 DA      0.0000
   2013 O4'       -1.4514     7.2482   739.8851 O.3      234 DA      0.0000
   2014 C3'       -2.6980     8.5600   741.4045 C.3      234 DA      0.0000
   2015 O3'       -4.1063     8.2519   741.4568 O.3      234 DA      0.0000
   2016 C2'       -1.8317     7.5302   742.1400 C.3      234 DA      0.0000
   2017 C1'       -1.7617     6.4588   741.0624 C.3      234 DA      0.0000
   2018 N9        -0.7145     5.4581   741.2908 N.ar     234 DA      0.0000
   2019 C8         0.6244     5.6218   741.5066 C.ar     234 DA      0.0000
   2020 N7         1.2792     4.4941   741.6715 N.ar     234 DA      0.0000
   2021 C5         0.3030     3.5191   741.5313 C.ar     234 DA      0.0000
   2022 C6         0.3745     2.1097   741.5793 C.ar     234 DA      0.0000
   2023 N6         1.4949     1.4177   741.7991 N.pl3    234 DA      0.0000
   2024 N1        -0.8120     1.4595   741.3895 N.ar     234 DA      0.0000
   2025 C2        -1.9600     2.1418   741.1717 C.ar     234 DA      0.0000
   2026 N3        -2.1027     3.4653   741.1135 N.ar     234 DA      0.0000
   2027 C4        -0.9252     4.0889   741.3003 C.ar     234 DA      0.0000
   2028 H5'       -0.8187     9.3746   738.5540 H        234 DA      0.0000
   2029 H5''      -1.9030    10.5213   739.3934 H        234 DA      0.0000
   2030 H4'       -3.0208     8.3952   739.3057 H        234 DA      0.0000
   2031 H3'       -2.5172     9.5572   741.8060 H        234 DA      0.0000
   2032 H2'       -0.8465     7.9268   742.3855 H        234 DA      0.0000
   2033 H2''      -2.3373     7.1576   743.0309 H        234 DA      0.0000
   2034 H1'       -2.7309     5.9732   740.9479 H        234 DA      0.0000
   2035 H8         1.1016     6.5901   741.5386 H        234 DA      0.0000
   2036 H2        -2.8538     1.5522   741.0304 H        234 DA      0.0000
   2037 H61        2.4307     1.7851   741.7017 H        234 DA      0.0000
   2038 H62        1.4849     0.4224   741.6276 H        234 DA      0.0000
   2039 P         -1.2970    -8.4384   743.9038 P.3      234 DT      0.0000
   2040 OP1       -1.5465    -9.9405   744.0517 O.co2    234 DT      0.0000
   2041 OP2        0.0276    -8.2097   743.2339 O.co2    234 DT      0.0000
   2042 O5'       -2.4973    -7.7059   743.2517 O.3      234 DT      0.0000
   2043 C5'       -3.5820    -7.1609   744.0031 C.3      234 DT      0.0000
   2044 C4'       -4.1270    -5.9867   743.2551 C.3      234 DT      0.0000
   2045 O4'       -3.3587    -4.8154   743.1981 O.3      234 DT      0.0000
   2046 C3'       -4.5558    -6.2126   741.7891 C.3      234 DT      0.0000
   2047 O3'       -5.6799    -5.3334   741.6853 O.3      234 DT      0.0000
   2048 C2'       -3.3359    -5.6808   741.0253 C.3      234 DT      0.0000
   2049 C1'       -3.1791    -4.3889   741.8011 C.3      234 DT      0.0000
   2050 N1        -1.8724    -3.7336   741.6949 N.am     234 DT      0.0000
   2051 C2        -1.9013    -2.3325   741.6943 C.2      234 DT      0.0000
   2052 O2        -2.9693    -1.7182   741.7373 O.2      234 DT      0.0000
   2053 N3        -0.6997    -1.6867   741.6408 N.am     234 DT      0.0000
   2054 C4         0.4913    -2.3474   741.5811 C.2      234 DT      0.0000
   2055 O4         1.5528    -1.6570   741.5187 O.2      234 DT      0.0000
   2056 C5         0.4917    -3.7689   741.5893 C.2      234 DT      0.0000
   2057 C7         1.8077    -4.5159   741.5279 C.3      234 DT      0.0000
   2058 C6        -0.6861    -4.3965   741.6558 C.2      234 DT      0.0000
   2059 H5'       -4.3608    -7.9138   744.1253 H        234 DT      0.0000
   2060 H5''      -3.2256    -6.8394   744.9817 H        234 DT      0.0000
   2061 H4'       -5.0393    -5.7075   743.7824 H        234 DT      0.0000
   2062 H3'       -4.7934    -7.2515   741.5604 H        234 DT      0.0000
   2063 H2'       -3.5472    -5.5098   739.9698 H        234 DT      0.0000
   2064 H2''      -2.4707    -6.3305   741.1569 H        234 DT      0.0000
   2065 H1'       -3.9681    -3.6905   741.5220 H        234 DT      0.0000
   2066 H3        -0.6928    -0.6767   741.6457 H        234 DT      0.0000
   2067 H6        -0.6960    -5.4762   741.6795 H        234 DT      0.0000
   2068 H71        2.6296    -3.8016   741.4791 H        234 DT      0.0000
   2069 H72        1.8243    -5.1498   740.6413 H        234 DT      0.0000
   2070 H73        1.9163    -5.1344   742.4188 H        234 DT      0.0000
   2071 P         -6.7262    -5.2912   740.5391 P.3      233 DC      0.0000
   2072 OP1       -8.1295    -5.2841   741.1482 O.co2    233 DC      0.0000
   2073 OP2       -6.5241    -6.5511   739.7572 O.co2    233 DC      0.0000
   2074 O5'       -6.3260    -3.8958   739.7997 O.3      233 DC      0.0000
   2075 C5'       -6.7091    -2.6810   740.5242 C.3      233 DC      0.0000
   2076 C4'       -7.0553    -1.6580   739.4737 C.3      233 DC      0.0000
   2077 O4'       -5.9940    -0.7649   739.2284 O.3      233 DC      0.0000
   2078 C3'       -7.4437    -2.2300   738.1092 C.3      233 DC      0.0000
   2079 O3'       -8.4227    -1.4675   737.4000 O.3      233 DC      0.0000
   2080 C2'       -6.0719    -2.2863   737.4231 C.3      233 DC      0.0000
   2081 C1'       -5.3792    -1.0394   737.9697 C.3      233 DC      0.0000
   2082 N1        -3.9321    -1.3358   738.0875 N.am     233 DC      0.0000
   2083 C2        -3.0618    -0.2468   738.1047 C.2      233 DC      0.0000
   2084 O2        -3.4874     0.9144   738.0361 O.2      233 DC      0.0000
   2085 N3        -1.7237    -0.5161   738.2080 N.2      233 DC      0.0000
   2086 C4        -1.2458    -1.7860   738.2787 C.2      233 DC      0.0000
   2087 N4         0.0683    -1.9974   738.3807 N.pl3    233 DC      0.0000
   2088 C5        -2.1558    -2.8794   738.2536 C.2      233 DC      0.0000
   2089 C6        -3.4701    -2.6140   738.1600 C.2      233 DC      0.0000
   2090 H5'       -7.5724    -2.8768   741.1602 H        233 DC      0.0000
   2091 H5''      -5.8733    -2.3275   741.1281 H        233 DC      0.0000
   2092 H4'       -7.9001    -1.0764   739.8424 H        233 DC      0.0000
   2093 H3'       -7.8148    -3.2460   738.2434 H        233 DC      0.0000
   2094 H2'       -6.1714    -2.2384   736.3387 H        233 DC      0.0000
   2095 H2''      -5.5318    -3.1856   737.7191 H        233 DC      0.0000
   2096 H1'       -5.5328    -0.2010   737.2903 H        233 DC      0.0000
   2097 H5        -1.7994    -3.8974   738.3084 H        233 DC      0.0000
   2098 H6        -4.1745    -3.4325   738.1419 H        233 DC      0.0000
   2099 H41        0.7057    -1.2143   738.4013 H        233 DC      0.0000
   2100 H42        0.4251    -2.9406   738.4370 H        233 DC      0.0000
   2101 P         -8.4715    -1.2388   735.7680 P.3      232 DA      0.0000
   2102 OP1       -9.8937    -0.8981   735.3785 O.co2    232 DA      0.0000
   2103 OP2       -7.9559    -2.5131   735.1979 O.co2    232 DA      0.0000
   2104 O5'       -7.5818     0.0763   735.6024 O.3      232 DA      0.0000
   2105 C5'       -8.1525     1.3607   736.0678 C.3      232 DA      0.0000
   2106 C4'       -7.4197     2.3614   735.1906 C.3      232 DA      0.0000
   2107 O4'       -6.0128     2.3006   735.4579 O.3      232 DA      0.0000
   2108 C3'       -7.5420     2.0604   733.6862 C.3      232 DA      0.0000
   2109 O3'       -7.1850     3.1840   732.8971 O.3      232 DA      0.0000
   2110 C2'       -6.3939     1.0516   733.4987 C.3      232 DA      0.0000
   2111 C1'       -5.3409     1.9084   734.2534 C.3      232 DA      0.0000
   2112 N9        -4.1882     1.0254   734.3988 N.ar     232 DA      0.0000
   2113 C8        -4.2141    -0.3494   734.4716 C.ar     232 DA      0.0000
   2114 N7        -3.0253    -0.8862   734.5863 N.ar     232 DA      0.0000
   2115 C5        -2.1609     0.2232   734.5799 C.ar     232 DA      0.0000
   2116 C6        -0.7446     0.3016   734.6798 C.ar     232 DA      0.0000
   2117 N6         0.0519    -0.7642   734.8027 N.pl3    232 DA      0.0000
   2118 N1        -0.2471     1.5694   734.6447 N.ar     232 DA      0.0000
   2119 C2        -1.0551     2.6514   734.5258 C.ar     232 DA      0.0000
   2120 N3        -2.3881     2.6504   734.4343 N.ar     232 DA      0.0000
   2121 C4        -2.8673     1.3945   734.4619 C.ar     232 DA      0.0000
   2122 H5'       -9.2289     1.4003   735.9011 H        232 DA      0.0000
   2123 H5''      -7.9192     1.5271   737.1195 H        232 DA      0.0000
   2124 H4'       -7.7885     3.3666   735.3945 H        232 DA      0.0000
   2125 H3'       -8.5141     1.6476   733.4165 H        232 DA      0.0000
   2126 H2'       -6.5868     0.0930   733.9803 H        232 DA      0.0000
   2127 H2''      -6.1340     0.9286   732.4473 H        232 DA      0.0000
   2128 H1'       -5.0742     2.7863   733.6649 H        232 DA      0.0000
   2129 H8        -5.1255    -0.9280   734.4376 H        232 DA      0.0000
   2130 H2        -0.5701     3.6160   734.5026 H        232 DA      0.0000
   2131 H61       -0.3462    -1.6920   734.8274 H        232 DA      0.0000
   2132 H62        1.0522    -0.6419   734.8708 H        232 DA      0.0000
   2133 P         -8.1532     3.7155   731.7562 P.3      231 DC      0.0000
   2134 OP1       -9.1171     4.5940   732.5365 O.co2    231 DC      0.0000
   2135 OP2       -8.8224     2.6300   731.0306 O.co2    231 DC      0.0000
   2136 O5'       -7.0768     4.4860   730.7803 O.3      231 DC      0.0000
   2137 C5'       -6.1987     5.4698   731.4494 C.3      231 DC      0.0000
   2138 C4'       -4.8387     5.4121   730.8053 C.3      231 DC      0.0000
   2139 O4'       -3.9402     4.5121   731.4425 O.3      231 DC      0.0000
   2140 C3'       -4.8937     4.9887   729.3275 C.3      231 DC      0.0000
   2141 O3'       -3.8939     5.5926   728.5162 O.3      231 DC      0.0000
   2142 C2'       -4.5674     3.4682   729.4932 C.3      231 DC      0.0000
   2143 C1'       -3.3067     3.7568   730.3887 C.3      231 DC      0.0000
   2144 N1        -2.6614     2.4921   730.6266 N.am     231 DC      0.0000
   2145 C2        -1.3127     2.4882   730.9438 C.2      231 DC      0.0000
   2146 O2        -0.5316     3.4360   731.0842 O.2      231 DC      0.0000
   2147 N3        -0.7039     1.2800   731.1420 N.2      231 DC      0.0000
   2148 C4        -1.3833     0.0986   731.0260 C.2      231 DC      0.0000
   2149 N4        -0.7459    -1.0626   731.2421 N.pl3    231 DC      0.0000
   2150 C5        -2.7667     0.1187   730.6964 C.2      231 DC      0.0000
   2151 C6        -3.3398     1.3126   730.5047 C.2      231 DC      0.0000
   2152 H5'       -6.6160     6.4706   731.3379 H        231 DC      0.0000
   2153 H5''      -6.1134     5.2244   732.5080 H        231 DC      0.0000
   2154 H4'       -4.4029     6.4101   730.8521 H        231 DC      0.0000
   2155 H3'       -5.8888     5.1379   728.9085 H        231 DC      0.0000
   2156 H2'       -5.3484     2.9108   730.0103 H        231 DC      0.0000
   2157 H2''      -4.2957     3.0043   728.5449 H        231 DC      0.0000
   2158 H1'       -2.6238     4.4086   729.8438 H        231 DC      0.0000
   2159 H5        -3.3337    -0.7959   730.6042 H        231 DC      0.0000
   2160 H6        -4.3867     1.3452   730.2414 H        231 DC      0.0000
   2161 H41        0.2350    -1.0631   731.4826 H        231 DC      0.0000
   2162 H42       -1.2472    -1.9360   731.1641 H        231 DC      0.0000
@<TRIPOS>BOND
     1      9     34 1
     2     42     66 1
     3     74     99 1
     4    107    131 1
     5    139    163 1
     6    171    195 1
     7    203    227 1
     8    235    257 1
     9    265    289 1
    10    327    352 1
    11    360    384 1
    12    392    417 1
    13    425    449 1
    14    457    481 1
    15    489    513 1
    16    521    545 1
    17    553    575 1
    18    583    607 1
    19      1      2 1
    20      1      3 1
    21      1      4 1
    22      4      5 1
    23      5      6 1
    24      6      7 1
    25      6      8 1
    26      7     11 1
    27      8      9 1
    28      8     10 1
    29     10     11 1
    30     11     12 1
    31     12     13 ar
    32     12     22 ar
    33     13     14 ar
    34     14     15 ar
    35     15     16 1
    36     15     22 ar
    37     16     17 2
    38     16     18 am
    39     18     19 1
    40     19     20 2
    41     19     21 2
    42     21     22 1
    43     34     35 1
    44     34     36 1
    45     34     37 1
    46     37     38 1
    47     38     39 1
    48     39     40 1
    49     39     41 1
    50     40     44 1
    51     41     42 1
    52     41     43 1
    53     43     44 1
    54     44     45 1
    55     45     46 am
    56     45     53 1
    57     46     47 2
    58     46     48 am
    59     48     49 am
    60     49     50 2
    61     49     51 1
    62     51     52 1
    63     51     53 2
    64     66     67 1
    65     66     68 1
    66     66     69 1
    67     69     70 1
    68     70     71 1
    69     71     72 1
    70     71     73 1
    71     72     76 1
    72     73     74 1
    73     73     75 1
    74     75     76 1
    75     76     77 1
    76     77     78 ar
    77     77     87 ar
    78     78     79 ar
    79     79     80 ar
    80     80     81 1
    81     80     87 ar
    82     81     82 2
    83     81     83 am
    84     83     84 1
    85     84     85 2
    86     84     86 2
    87     86     87 1
    88     99    100 1
    89     99    101 1
    90     99    102 1
    91    102    103 1
    92    103    104 1
    93    104    105 1
    94    104    106 1
    95    105    109 1
    96    106    107 1
    97    106    108 1
    98    108    109 1
    99    109    110 1
   100    110    111 ar
   101    110    119 ar
   102    111    112 ar
   103    112    113 ar
   104    113    114 ar
   105    113    119 ar
   106    114    115 1
   107    114    116 ar
   108    116    117 ar
   109    117    118 ar
   110    118    119 ar
   111    131    132 1
   112    131    133 1
   113    131    134 1
   114    134    135 1
   115    135    136 1
   116    136    137 1
   117    136    138 1
   118    137    141 1
   119    138    139 1
   120    138    140 1
   121    140    141 1
   122    141    142 1
   123    142    143 ar
   124    142    151 ar
   125    143    144 ar
   126    144    145 ar
   127    145    146 ar
   128    145    151 ar
   129    146    147 1
   130    146    148 ar
   131    148    149 ar
   132    149    150 ar
   133    150    151 ar
   134    163    164 1
   135    163    165 1
   136    163    166 1
   137    166    167 1
   138    167    168 1
   139    168    169 1
   140    168    170 1
   141    169    173 1
   142    170    171 1
   143    170    172 1
   144    172    173 1
   145    173    174 1
   146    174    175 am
   147    174    182 1
   148    175    176 2
   149    175    177 am
   150    177    178 am
   151    178    179 2
   152    178    180 1
   153    180    181 1
   154    180    182 2
   155    195    196 1
   156    195    197 1
   157    195    198 1
   158    198    199 1
   159    199    200 1
   160    200    201 1
   161    200    202 1
   162    201    205 1
   163    202    203 1
   164    202    204 1
   165    204    205 1
   166    205    206 1
   167    206    207 am
   168    206    214 1
   169    207    208 2
   170    207    209 am
   171    209    210 am
   172    210    211 2
   173    210    212 1
   174    212    213 1
   175    212    214 2
   176    227    228 1
   177    227    229 1
   178    227    230 1
   179    230    231 1
   180    231    232 1
   181    232    233 1
   182    232    234 1
   183    233    237 1
   184    234    235 1
   185    234    236 1
   186    236    237 1
   187    237    238 1
   188    238    239 am
   189    238    245 1
   190    239    240 2
   191    239    241 1
   192    241    242 2
   193    242    243 2
   194    242    244 2
   195    244    245 2
   196    257    258 1
   197    257    259 1
   198    257    260 1
   199    260    261 1
   200    261    262 1
   201    262    263 1
   202    262    264 1
   203    263    267 1
   204    264    265 1
   205    264    266 1
   206    266    267 1
   207    267    268 1
   208    268    269 ar
   209    268    277 ar
   210    269    270 ar
   211    270    271 ar
   212    271    272 ar
   213    271    277 ar
   214    272    273 1
   215    272    274 ar
   216    274    275 ar
   217    275    276 ar
   218    276    277 ar
   219    289    290 1
   220    289    291 1
   221    289    292 1
   222    292    293 1
   223    293    294 1
   224    294    295 1
   225    294    296 1
   226    295    299 1
   227    296    297 1
   228    296    298 1
   229    298    299 1
   230    299    300 1
   231    300    301 am
   232    300    307 1
   233    301    302 2
   234    301    303 1
   235    303    304 2
   236    304    305 2
   237    304    306 2
   238    306    307 2
   239    319    320 1
   240    319    321 1
   241    319    322 1
   242    322    323 1
   243    323    324 1
   244    324    325 1
   245    324    326 1
   246    325    329 1
   247    326    327 1
   248    326    328 1
   249    328    329 1
   250    329    330 1
   251    330    331 ar
   252    330    340 ar
   253    331    332 ar
   254    332    333 ar
   255    333    334 1
   256    333    340 ar
   257    334    335 2
   258    334    336 am
   259    336    337 1
   260    337    338 2
   261    337    339 2
   262    339    340 1
   263    352    353 1
   264    352    354 1
   265    352    355 1
   266    355    356 1
   267    356    357 1
   268    357    358 1
   269    357    359 1
   270    358    362 1
   271    359    360 1
   272    359    361 1
   273    361    362 1
   274    362    363 1
   275    363    364 am
   276    363    371 1
   277    364    365 2
   278    364    366 am
   279    366    367 am
   280    367    368 2
   281    367    369 1
   282    369    370 1
   283    369    371 2
   284    384    385 1
   285    384    386 1
   286    384    387 1
   287    387    388 1
   288    388    389 1
   289    389    390 1
   290    389    391 1
   291    390    394 1
   292    391    392 1
   293    391    393 1
   294    393    394 1
   295    394    395 1
   296    395    396 ar
   297    395    405 ar
   298    396    397 ar
   299    397    398 ar
   300    398    399 1
   301    398    405 ar
   302    399    400 2
   303    399    401 am
   304    401    402 1
   305    402    403 2
   306    402    404 2
   307    404    405 1
   308    417    418 1
   309    417    419 1
   310    417    420 1
   311    420    421 1
   312    421    422 1
   313    422    423 1
   314    422    424 1
   315    423    427 1
   316    424    425 1
   317    424    426 1
   318    426    427 1
   319    427    428 1
   320    428    429 ar
   321    428    437 ar
   322    429    430 ar
   323    430    431 ar
   324    431    432 ar
   325    431    437 ar
   326    432    433 1
   327    432    434 ar
   328    434    435 ar
   329    435    436 ar
   330    436    437 ar
   331    449    450 1
   332    449    451 1
   333    449    452 1
   334    452    453 1
   335    453    454 1
   336    454    455 1
   337    454    456 1
   338    455    459 1
   339    456    457 1
   340    456    458 1
   341    458    459 1
   342    459    460 1
   343    460    461 ar
   344    460    469 ar
   345    461    462 ar
   346    462    463 ar
   347    463    464 ar
   348    463    469 ar
   349    464    465 1
   350    464    466 ar
   351    466    467 ar
   352    467    468 ar
   353    468    469 ar
   354    481    482 1
   355    481    483 1
   356    481    484 1
   357    484    485 1
   358    485    486 1
   359    486    487 1
   360    486    488 1
   361    487    491 1
   362    488    489 1
   363    488    490 1
   364    490    491 1
   365    491    492 1
   366    492    493 am
   367    492    500 1
   368    493    494 2
   369    493    495 am
   370    495    496 am
   371    496    497 2
   372    496    498 1
   373    498    499 1
   374    498    500 2
   375    513    514 1
   376    513    515 1
   377    513    516 1
   378    516    517 1
   379    517    518 1
   380    518    519 1
   381    518    520 1
   382    519    523 1
   383    520    521 1
   384    520    522 1
   385    522    523 1
   386    523    524 1
   387    524    525 am
   388    524    532 1
   389    525    526 2
   390    525    527 am
   391    527    528 am
   392    528    529 2
   393    528    530 1
   394    530    531 1
   395    530    532 2
   396    545    546 1
   397    545    547 1
   398    545    548 1
   399    548    549 1
   400    549    550 1
   401    550    551 1
   402    550    552 1
   403    551    555 1
   404    552    553 1
   405    552    554 1
   406    554    555 1
   407    555    556 1
   408    556    557 am
   409    556    563 1
   410    557    558 2
   411    557    559 1
   412    559    560 2
   413    560    561 2
   414    560    562 2
   415    562    563 2
   416    575    576 1
   417    575    577 1
   418    575    578 1
   419    578    579 1
   420    579    580 1
   421    580    581 1
   422    580    582 1
   423    581    585 1
   424    582    583 1
   425    582    584 1
   426    584    585 1
   427    585    586 1
   428    586    587 ar
   429    586    595 ar
   430    587    588 ar
   431    588    589 ar
   432    589    590 ar
   433    589    595 ar
   434    590    591 1
   435    590    592 ar
   436    592    593 ar
   437    593    594 ar
   438    594    595 ar
   439    607    608 1
   440    607    609 1
   441    607    610 1
   442    610    611 1
   443    611    612 1
   444    612    613 1
   445    612    614 1
   446    613    617 1
   447    614    615 1
   448    614    616 1
   449    616    617 1
   450    617    618 1
   451    618    619 am
   452    618    625 1
   453    619    620 2
   454    619    621 1
   455    621    622 2
   456    622    623 2
   457    622    624 2
   458    624    625 2
   459     23      5 1
   460     24      5 1
   461     25      6 1
   462     26      8 1
   463     27     10 1
   464     28     10 1
   465     29     11 1
   466     30     13 1
   467     31     18 1
   468     54     38 1
   469     55     38 1
   470     56     39 1
   471     57     41 1
   472     58     43 1
   473     59     43 1
   474     60     44 1
   475     61     48 1
   476     62     53 1
   477     88     70 1
   478     89     70 1
   479     90     71 1
   480     91     73 1
   481     92     75 1
   482     93     75 1
   483     94     76 1
   484     95     78 1
   485     96     83 1
   486    120    103 1
   487    121    103 1
   488    122    104 1
   489    123    106 1
   490    124    108 1
   491    125    108 1
   492    126    109 1
   493    127    111 1
   494    128    117 1
   495    152    135 1
   496    153    135 1
   497    154    136 1
   498    155    138 1
   499    156    140 1
   500    157    140 1
   501    158    141 1
   502    159    143 1
   503    160    149 1
   504    183    167 1
   505    184    167 1
   506    185    168 1
   507    186    170 1
   508    187    172 1
   509    188    172 1
   510    189    173 1
   511    190    177 1
   512    191    182 1
   513    215    199 1
   514    216    199 1
   515    217    200 1
   516    218    202 1
   517    219    204 1
   518    220    204 1
   519    221    205 1
   520    222    209 1
   521    223    214 1
   522    246    231 1
   523    247    231 1
   524    248    232 1
   525    249    234 1
   526    250    236 1
   527    251    236 1
   528    252    237 1
   529    253    244 1
   530    254    245 1
   531    278    261 1
   532    279    261 1
   533    280    262 1
   534    281    264 1
   535    282    266 1
   536    283    266 1
   537    284    267 1
   538    285    269 1
   539    286    275 1
   540    308    293 1
   541    309    293 1
   542    310    294 1
   543    311    296 1
   544    312    298 1
   545    313    298 1
   546    314    299 1
   547    315    306 1
   548    316    307 1
   549    341    323 1
   550    342    323 1
   551    343    324 1
   552    344    326 1
   553    345    328 1
   554    346    328 1
   555    347    329 1
   556    348    331 1
   557    349    336 1
   558    372    356 1
   559    373    356 1
   560    374    357 1
   561    375    359 1
   562    376    361 1
   563    377    361 1
   564    378    362 1
   565    379    366 1
   566    380    371 1
   567    406    388 1
   568    407    388 1
   569    408    389 1
   570    409    391 1
   571    410    393 1
   572    411    393 1
   573    412    394 1
   574    413    396 1
   575    414    401 1
   576    438    421 1
   577    439    421 1
   578    440    422 1
   579    441    424 1
   580    442    426 1
   581    443    426 1
   582    444    427 1
   583    445    429 1
   584    446    435 1
   585    470    453 1
   586    471    453 1
   587    472    454 1
   588    473    456 1
   589    474    458 1
   590    475    458 1
   591    476    459 1
   592    477    461 1
   593    478    467 1
   594    501    485 1
   595    502    485 1
   596    503    486 1
   597    504    488 1
   598    505    490 1
   599    506    490 1
   600    507    491 1
   601    508    495 1
   602    509    500 1
   603    533    517 1
   604    534    517 1
   605    535    518 1
   606    536    520 1
   607    537    522 1
   608    538    522 1
   609    539    523 1
   610    540    527 1
   611    541    532 1
   612    564    549 1
   613    565    549 1
   614    566    550 1
   615    567    552 1
   616    568    554 1
   617    569    554 1
   618    570    555 1
   619    571    562 1
   620    572    563 1
   621    596    579 1
   622    597    579 1
   623    598    580 1
   624    599    582 1
   625    600    584 1
   626    601    584 1
   627    602    585 1
   628    603    587 1
   629    604    593 1
   630    626    611 1
   631    627    611 1
   632    628    612 1
   633    629    614 1
   634    630    616 1
   635    631    616 1
   636    632    617 1
   637    633    624 1
   638    634    625 1
   639     32     20 1
   640     33     20 1
   641     97     85 1
   642     98     85 1
   643    255    243 1
   644    256    243 1
   645    317    305 1
   646    318    305 1
   647    350    338 1
   648    351    338 1
   649    415    403 1
   650    416    403 1
   651    573    561 1
   652    574    561 1
   653    635    623 1
   654    636    623 1
   655    129    115 1
   656    130    115 1
   657    161    147 1
   658    162    147 1
   659    287    273 1
   660    288    273 1
   661    447    433 1
   662    448    433 1
   663    479    465 1
   664    480    465 1
   665    605    591 1
   666    606    591 1
   667     63     52 1
   668     64     52 1
   669     65     52 1
   670    192    181 1
   671    193    181 1
   672    194    181 1
   673    224    213 1
   674    225    213 1
   675    226    213 1
   676    381    370 1
   677    382    370 1
   678    383    370 1
   679    510    499 1
   680    511    499 1
   681    512    499 1
   682    542    531 1
   683    543    531 1
   684    544    531 1
   685    297    637 1
   686    319   1251 1
   687    645    670 1
   688    678    702 1
   689    710    735 1
   690    743    767 1
   691    775    799 1
   692    807    831 1
   693    839    863 1
   694    871    893 1
   695    901    925 1
   696    963    988 1
   697    996   1020 1
   698   1028   1053 1
   699   1061   1085 1
   700   1093   1117 1
   701   1125   1149 1
   702   1157   1181 1
   703   1189   1211 1
   704   1219   1243 1
   705    637    638 1
   706    637    639 1
   707    637    640 1
   708    640    641 1
   709    641    642 1
   710    642    643 1
   711    642    644 1
   712    643    647 1
   713    644    645 1
   714    644    646 1
   715    646    647 1
   716    647    648 1
   717    648    649 ar
   718    648    658 ar
   719    649    650 ar
   720    650    651 ar
   721    651    652 1
   722    651    658 ar
   723    652    653 2
   724    652    654 am
   725    654    655 1
   726    655    656 2
   727    655    657 2
   728    657    658 1
   729    670    671 1
   730    670    672 1
   731    670    673 1
   732    673    674 1
   733    674    675 1
   734    675    676 1
   735    675    677 1
   736    676    680 1
   737    677    678 1
   738    677    679 1
   739    679    680 1
   740    680    681 1
   741    681    682 am
   742    681    689 1
   743    682    683 2
   744    682    684 am
   745    684    685 am
   746    685    686 2
   747    685    687 1
   748    687    688 1
   749    687    689 2
   750    702    703 1
   751    702    704 1
   752    702    705 1
   753    705    706 1
   754    706    707 1
   755    707    708 1
   756    707    709 1
   757    708    712 1
   758    709    710 1
   759    709    711 1
   760    711    712 1
   761    712    713 1
   762    713    714 ar
   763    713    723 ar
   764    714    715 ar
   765    715    716 ar
   766    716    717 1
   767    716    723 ar
   768    717    718 2
   769    717    719 am
   770    719    720 1
   771    720    721 2
   772    720    722 2
   773    722    723 1
   774    735    736 1
   775    735    737 1
   776    735    738 1
   777    738    739 1
   778    739    740 1
   779    740    741 1
   780    740    742 1
   781    741    745 1
   782    742    743 1
   783    742    744 1
   784    744    745 1
   785    745    746 1
   786    746    747 ar
   787    746    755 ar
   788    747    748 ar
   789    748    749 ar
   790    749    750 ar
   791    749    755 ar
   792    750    751 1
   793    750    752 ar
   794    752    753 ar
   795    753    754 ar
   796    754    755 ar
   797    767    768 1
   798    767    769 1
   799    767    770 1
   800    770    771 1
   801    771    772 1
   802    772    773 1
   803    772    774 1
   804    773    777 1
   805    774    775 1
   806    774    776 1
   807    776    777 1
   808    777    778 1
   809    778    779 ar
   810    778    787 ar
   811    779    780 ar
   812    780    781 ar
   813    781    782 ar
   814    781    787 ar
   815    782    783 1
   816    782    784 ar
   817    784    785 ar
   818    785    786 ar
   819    786    787 ar
   820    799    800 1
   821    799    801 1
   822    799    802 1
   823    802    803 1
   824    803    804 1
   825    804    805 1
   826    804    806 1
   827    805    809 1
   828    806    807 1
   829    806    808 1
   830    808    809 1
   831    809    810 1
   832    810    811 am
   833    810    818 1
   834    811    812 2
   835    811    813 am
   836    813    814 am
   837    814    815 2
   838    814    816 1
   839    816    817 1
   840    816    818 2
   841    831    832 1
   842    831    833 1
   843    831    834 1
   844    834    835 1
   845    835    836 1
   846    836    837 1
   847    836    838 1
   848    837    841 1
   849    838    839 1
   850    838    840 1
   851    840    841 1
   852    841    842 1
   853    842    843 am
   854    842    850 1
   855    843    844 2
   856    843    845 am
   857    845    846 am
   858    846    847 2
   859    846    848 1
   860    848    849 1
   861    848    850 2
   862    863    864 1
   863    863    865 1
   864    863    866 1
   865    866    867 1
   866    867    868 1
   867    868    869 1
   868    868    870 1
   869    869    873 1
   870    870    871 1
   871    870    872 1
   872    872    873 1
   873    873    874 1
   874    874    875 am
   875    874    881 1
   876    875    876 2
   877    875    877 1
   878    877    878 2
   879    878    879 2
   880    878    880 2
   881    880    881 2
   882    893    894 1
   883    893    895 1
   884    893    896 1
   885    896    897 1
   886    897    898 1
   887    898    899 1
   888    898    900 1
   889    899    903 1
   890    900    901 1
   891    900    902 1
   892    902    903 1
   893    903    904 1
   894    904    905 ar
   895    904    913 ar
   896    905    906 ar
   897    906    907 ar
   898    907    908 ar
   899    907    913 ar
   900    908    909 1
   901    908    910 ar
   902    910    911 ar
   903    911    912 ar
   904    912    913 ar
   905    925    926 1
   906    925    927 1
   907    925    928 1
   908    928    929 1
   909    929    930 1
   910    930    931 1
   911    930    932 1
   912    931    935 1
   913    932    933 1
   914    932    934 1
   915    934    935 1
   916    935    936 1
   917    936    937 am
   918    936    943 1
   919    937    938 2
   920    937    939 1
   921    939    940 2
   922    940    941 2
   923    940    942 2
   924    942    943 2
   925    955    956 1
   926    955    957 1
   927    955    958 1
   928    958    959 1
   929    959    960 1
   930    960    961 1
   931    960    962 1
   932    961    965 1
   933    962    963 1
   934    962    964 1
   935    964    965 1
   936    965    966 1
   937    966    967 ar
   938    966    976 ar
   939    967    968 ar
   940    968    969 ar
   941    969    970 1
   942    969    976 ar
   943    970    971 2
   944    970    972 am
   945    972    973 1
   946    973    974 2
   947    973    975 2
   948    975    976 1
   949    988    989 1
   950    988    990 1
   951    988    991 1
   952    991    992 1
   953    992    993 1
   954    993    994 1
   955    993    995 1
   956    994    998 1
   957    995    996 1
   958    995    997 1
   959    997    998 1
   960    998    999 1
   961    999   1000 am
   962    999   1007 1
   963   1000   1001 2
   964   1000   1002 am
   965   1002   1003 am
   966   1003   1004 2
   967   1003   1005 1
   968   1005   1006 1
   969   1005   1007 2
   970   1020   1021 1
   971   1020   1022 1
   972   1020   1023 1
   973   1023   1024 1
   974   1024   1025 1
   975   1025   1026 1
   976   1025   1027 1
   977   1026   1030 1
   978   1027   1028 1
   979   1027   1029 1
   980   1029   1030 1
   981   1030   1031 1
   982   1031   1032 ar
   983   1031   1041 ar
   984   1032   1033 ar
   985   1033   1034 ar
   986   1034   1035 1
   987   1034   1041 ar
   988   1035   1036 2
   989   1035   1037 am
   990   1037   1038 1
   991   1038   1039 2
   992   1038   1040 2
   993   1040   1041 1
   994   1053   1054 1
   995   1053   1055 1
   996   1053   1056 1
   997   1056   1057 1
   998   1057   1058 1
   999   1058   1059 1
  1000   1058   1060 1
  1001   1059   1063 1
  1002   1060   1061 1
  1003   1060   1062 1
  1004   1062   1063 1
  1005   1063   1064 1
  1006   1064   1065 ar
  1007   1064   1073 ar
  1008   1065   1066 ar
  1009   1066   1067 ar
  1010   1067   1068 ar
  1011   1067   1073 ar
  1012   1068   1069 1
  1013   1068   1070 ar
  1014   1070   1071 ar
  1015   1071   1072 ar
  1016   1072   1073 ar
  1017   1085   1086 1
  1018   1085   1087 1
  1019   1085   1088 1
  1020   1088   1089 1
  1021   1089   1090 1
  1022   1090   1091 1
  1023   1090   1092 1
  1024   1091   1095 1
  1025   1092   1093 1
  1026   1092   1094 1
  1027   1094   1095 1
  1028   1095   1096 1
  1029   1096   1097 ar
  1030   1096   1105 ar
  1031   1097   1098 ar
  1032   1098   1099 ar
  1033   1099   1100 ar
  1034   1099   1105 ar
  1035   1100   1101 1
  1036   1100   1102 ar
  1037   1102   1103 ar
  1038   1103   1104 ar
  1039   1104   1105 ar
  1040   1117   1118 1
  1041   1117   1119 1
  1042   1117   1120 1
  1043   1120   1121 1
  1044   1121   1122 1
  1045   1122   1123 1
  1046   1122   1124 1
  1047   1123   1127 1
  1048   1124   1125 1
  1049   1124   1126 1
  1050   1126   1127 1
  1051   1127   1128 1
  1052   1128   1129 am
  1053   1128   1136 1
  1054   1129   1130 2
  1055   1129   1131 am
  1056   1131   1132 am
  1057   1132   1133 2
  1058   1132   1134 1
  1059   1134   1135 1
  1060   1134   1136 2
  1061   1149   1150 1
  1062   1149   1151 1
  1063   1149   1152 1
  1064   1152   1153 1
  1065   1153   1154 1
  1066   1154   1155 1
  1067   1154   1156 1
  1068   1155   1159 1
  1069   1156   1157 1
  1070   1156   1158 1
  1071   1158   1159 1
  1072   1159   1160 1
  1073   1160   1161 am
  1074   1160   1168 1
  1075   1161   1162 2
  1076   1161   1163 am
  1077   1163   1164 am
  1078   1164   1165 2
  1079   1164   1166 1
  1080   1166   1167 1
  1081   1166   1168 2
  1082   1181   1182 1
  1083   1181   1183 1
  1084   1181   1184 1
  1085   1184   1185 1
  1086   1185   1186 1
  1087   1186   1187 1
  1088   1186   1188 1
  1089   1187   1191 1
  1090   1188   1189 1
  1091   1188   1190 1
  1092   1190   1191 1
  1093   1191   1192 1
  1094   1192   1193 am
  1095   1192   1199 1
  1096   1193   1194 2
  1097   1193   1195 1
  1098   1195   1196 2
  1099   1196   1197 2
  1100   1196   1198 2
  1101   1198   1199 2
  1102   1211   1212 1
  1103   1211   1213 1
  1104   1211   1214 1
  1105   1214   1215 1
  1106   1215   1216 1
  1107   1216   1217 1
  1108   1216   1218 1
  1109   1217   1221 1
  1110   1218   1219 1
  1111   1218   1220 1
  1112   1220   1221 1
  1113   1221   1222 1
  1114   1222   1223 ar
  1115   1222   1231 ar
  1116   1223   1224 ar
  1117   1224   1225 ar
  1118   1225   1226 ar
  1119   1225   1231 ar
  1120   1226   1227 1
  1121   1226   1228 ar
  1122   1228   1229 ar
  1123   1229   1230 ar
  1124   1230   1231 ar
  1125   1243   1244 1
  1126   1243   1245 1
  1127   1243   1246 1
  1128   1246   1247 1
  1129   1247   1248 1
  1130   1248   1249 1
  1131   1248   1250 1
  1132   1249   1253 1
  1133   1250   1251 1
  1134   1250   1252 1
  1135   1252   1253 1
  1136   1253   1254 1
  1137   1254   1255 am
  1138   1254   1261 1
  1139   1255   1256 2
  1140   1255   1257 1
  1141   1257   1258 2
  1142   1258   1259 2
  1143   1258   1260 2
  1144   1260   1261 2
  1145    659    641 1
  1146    660    641 1
  1147    661    642 1
  1148    662    644 1
  1149    663    646 1
  1150    664    646 1
  1151    665    647 1
  1152    666    649 1
  1153    667    654 1
  1154    690    674 1
  1155    691    674 1
  1156    692    675 1
  1157    693    677 1
  1158    694    679 1
  1159    695    679 1
  1160    696    680 1
  1161    697    684 1
  1162    698    689 1
  1163    724    706 1
  1164    725    706 1
  1165    726    707 1
  1166    727    709 1
  1167    728    711 1
  1168    729    711 1
  1169    730    712 1
  1170    731    714 1
  1171    732    719 1
  1172    756    739 1
  1173    757    739 1
  1174    758    740 1
  1175    759    742 1
  1176    760    744 1
  1177    761    744 1
  1178    762    745 1
  1179    763    747 1
  1180    764    753 1
  1181    788    771 1
  1182    789    771 1
  1183    790    772 1
  1184    791    774 1
  1185    792    776 1
  1186    793    776 1
  1187    794    777 1
  1188    795    779 1
  1189    796    785 1
  1190    819    803 1
  1191    820    803 1
  1192    821    804 1
  1193    822    806 1
  1194    823    808 1
  1195    824    808 1
  1196    825    809 1
  1197    826    813 1
  1198    827    818 1
  1199    851    835 1
  1200    852    835 1
  1201    853    836 1
  1202    854    838 1
  1203    855    840 1
  1204    856    840 1
  1205    857    841 1
  1206    858    845 1
  1207    859    850 1
  1208    882    867 1
  1209    883    867 1
  1210    884    868 1
  1211    885    870 1
  1212    886    872 1
  1213    887    872 1
  1214    888    873 1
  1215    889    880 1
  1216    890    881 1
  1217    914    897 1
  1218    915    897 1
  1219    916    898 1
  1220    917    900 1
  1221    918    902 1
  1222    919    902 1
  1223    920    903 1
  1224    921    905 1
  1225    922    911 1
  1226    944    929 1
  1227    945    929 1
  1228    946    930 1
  1229    947    932 1
  1230    948    934 1
  1231    949    934 1
  1232    950    935 1
  1233    951    942 1
  1234    952    943 1
  1235    977    959 1
  1236    978    959 1
  1237    979    960 1
  1238    980    962 1
  1239    981    964 1
  1240    982    964 1
  1241    983    965 1
  1242    984    967 1
  1243    985    972 1
  1244   1008    992 1
  1245   1009    992 1
  1246   1010    993 1
  1247   1011    995 1
  1248   1012    997 1
  1249   1013    997 1
  1250   1014    998 1
  1251   1015   1002 1
  1252   1016   1007 1
  1253   1042   1024 1
  1254   1043   1024 1
  1255   1044   1025 1
  1256   1045   1027 1
  1257   1046   1029 1
  1258   1047   1029 1
  1259   1048   1030 1
  1260   1049   1032 1
  1261   1050   1037 1
  1262   1074   1057 1
  1263   1075   1057 1
  1264   1076   1058 1
  1265   1077   1060 1
  1266   1078   1062 1
  1267   1079   1062 1
  1268   1080   1063 1
  1269   1081   1065 1
  1270   1082   1071 1
  1271   1106   1089 1
  1272   1107   1089 1
  1273   1108   1090 1
  1274   1109   1092 1
  1275   1110   1094 1
  1276   1111   1094 1
  1277   1112   1095 1
  1278   1113   1097 1
  1279   1114   1103 1
  1280   1137   1121 1
  1281   1138   1121 1
  1282   1139   1122 1
  1283   1140   1124 1
  1284   1141   1126 1
  1285   1142   1126 1
  1286   1143   1127 1
  1287   1144   1131 1
  1288   1145   1136 1
  1289   1169   1153 1
  1290   1170   1153 1
  1291   1171   1154 1
  1292   1172   1156 1
  1293   1173   1158 1
  1294   1174   1158 1
  1295   1175   1159 1
  1296   1176   1163 1
  1297   1177   1168 1
  1298   1200   1185 1
  1299   1201   1185 1
  1300   1202   1186 1
  1301   1203   1188 1
  1302   1204   1190 1
  1303   1205   1190 1
  1304   1206   1191 1
  1305   1207   1198 1
  1306   1208   1199 1
  1307   1232   1215 1
  1308   1233   1215 1
  1309   1234   1216 1
  1310   1235   1218 1
  1311   1236   1220 1
  1312   1237   1220 1
  1313   1238   1221 1
  1314   1239   1223 1
  1315   1240   1229 1
  1316   1262   1247 1
  1317   1263   1247 1
  1318   1264   1248 1
  1319   1265   1250 1
  1320   1266   1252 1
  1321   1267   1252 1
  1322   1268   1253 1
  1323   1269   1260 1
  1324   1270   1261 1
  1325    668    656 1
  1326    669    656 1
  1327    733    721 1
  1328    734    721 1
  1329    891    879 1
  1330    892    879 1
  1331    953    941 1
  1332    954    941 1
  1333    986    974 1
  1334    987    974 1
  1335   1051   1039 1
  1336   1052   1039 1
  1337   1209   1197 1
  1338   1210   1197 1
  1339   1271   1259 1
  1340   1272   1259 1
  1341    765    751 1
  1342    766    751 1
  1343    797    783 1
  1344    798    783 1
  1345    923    909 1
  1346    924    909 1
  1347   1083   1069 1
  1348   1084   1069 1
  1349   1115   1101 1
  1350   1116   1101 1
  1351   1241   1227 1
  1352   1242   1227 1
  1353    699    688 1
  1354    700    688 1
  1355    701    688 1
  1356    828    817 1
  1357    829    817 1
  1358    830    817 1
  1359    860    849 1
  1360    861    849 1
  1361    862    849 1
  1362   1017   1006 1
  1363   1018   1006 1
  1364   1019   1006 1
  1365   1146   1135 1
  1366   1147   1135 1
  1367   1148   1135 1
  1368   1178   1167 1
  1369   1179   1167 1
  1370   1180   1167 1
  1371    933   1273 1
  1372    955   1887 1
  1373   1281   1306 1
  1374   1314   1338 1
  1375   1346   1371 1
  1376   1379   1403 1
  1377   1411   1435 1
  1378   1443   1467 1
  1379   1475   1499 1
  1380   1507   1529 1
  1381   1537   1561 1
  1382   1599   1624 1
  1383   1632   1656 1
  1384   1664   1689 1
  1385   1697   1721 1
  1386   1729   1753 1
  1387   1761   1785 1
  1388   1793   1817 1
  1389   1825   1847 1
  1390   1855   1879 1
  1391   1273   1274 1
  1392   1273   1275 1
  1393   1273   1276 1
  1394   1276   1277 1
  1395   1277   1278 1
  1396   1278   1279 1
  1397   1278   1280 1
  1398   1279   1283 1
  1399   1280   1281 1
  1400   1280   1282 1
  1401   1282   1283 1
  1402   1283   1284 1
  1403   1284   1285 ar
  1404   1284   1294 ar
  1405   1285   1286 ar
  1406   1286   1287 ar
  1407   1287   1288 1
  1408   1287   1294 ar
  1409   1288   1289 2
  1410   1288   1290 am
  1411   1290   1291 1
  1412   1291   1292 2
  1413   1291   1293 2
  1414   1293   1294 1
  1415   1306   1307 1
  1416   1306   1308 1
  1417   1306   1309 1
  1418   1309   1310 1
  1419   1310   1311 1
  1420   1311   1312 1
  1421   1311   1313 1
  1422   1312   1316 1
  1423   1313   1314 1
  1424   1313   1315 1
  1425   1315   1316 1
  1426   1316   1317 1
  1427   1317   1318 am
  1428   1317   1325 1
  1429   1318   1319 2
  1430   1318   1320 am
  1431   1320   1321 am
  1432   1321   1322 2
  1433   1321   1323 1
  1434   1323   1324 1
  1435   1323   1325 2
  1436   1338   1339 1
  1437   1338   1340 1
  1438   1338   1341 1
  1439   1341   1342 1
  1440   1342   1343 1
  1441   1343   1344 1
  1442   1343   1345 1
  1443   1344   1348 1
  1444   1345   1346 1
  1445   1345   1347 1
  1446   1347   1348 1
  1447   1348   1349 1
  1448   1349   1350 ar
  1449   1349   1359 ar
  1450   1350   1351 ar
  1451   1351   1352 ar
  1452   1352   1353 1
  1453   1352   1359 ar
  1454   1353   1354 2
  1455   1353   1355 am
  1456   1355   1356 1
  1457   1356   1357 2
  1458   1356   1358 2
  1459   1358   1359 1
  1460   1371   1372 1
  1461   1371   1373 1
  1462   1371   1374 1
  1463   1374   1375 1
  1464   1375   1376 1
  1465   1376   1377 1
  1466   1376   1378 1
  1467   1377   1381 1
  1468   1378   1379 1
  1469   1378   1380 1
  1470   1380   1381 1
  1471   1381   1382 1
  1472   1382   1383 ar
  1473   1382   1391 ar
  1474   1383   1384 ar
  1475   1384   1385 ar
  1476   1385   1386 ar
  1477   1385   1391 ar
  1478   1386   1387 1
  1479   1386   1388 ar
  1480   1388   1389 ar
  1481   1389   1390 ar
  1482   1390   1391 ar
  1483   1403   1404 1
  1484   1403   1405 1
  1485   1403   1406 1
  1486   1406   1407 1
  1487   1407   1408 1
  1488   1408   1409 1
  1489   1408   1410 1
  1490   1409   1413 1
  1491   1410   1411 1
  1492   1410   1412 1
  1493   1412   1413 1
  1494   1413   1414 1
  1495   1414   1415 ar
  1496   1414   1423 ar
  1497   1415   1416 ar
  1498   1416   1417 ar
  1499   1417   1418 ar
  1500   1417   1423 ar
  1501   1418   1419 1
  1502   1418   1420 ar
  1503   1420   1421 ar
  1504   1421   1422 ar
  1505   1422   1423 ar
  1506   1435   1436 1
  1507   1435   1437 1
  1508   1435   1438 1
  1509   1438   1439 1
  1510   1439   1440 1
  1511   1440   1441 1
  1512   1440   1442 1
  1513   1441   1445 1
  1514   1442   1443 1
  1515   1442   1444 1
  1516   1444   1445 1
  1517   1445   1446 1
  1518   1446   1447 am
  1519   1446   1454 1
  1520   1447   1448 2
  1521   1447   1449 am
  1522   1449   1450 am
  1523   1450   1451 2
  1524   1450   1452 1
  1525   1452   1453 1
  1526   1452   1454 2
  1527   1467   1468 1
  1528   1467   1469 1
  1529   1467   1470 1
  1530   1470   1471 1
  1531   1471   1472 1
  1532   1472   1473 1
  1533   1472   1474 1
  1534   1473   1477 1
  1535   1474   1475 1
  1536   1474   1476 1
  1537   1476   1477 1
  1538   1477   1478 1
  1539   1478   1479 am
  1540   1478   1486 1
  1541   1479   1480 2
  1542   1479   1481 am
  1543   1481   1482 am
  1544   1482   1483 2
  1545   1482   1484 1
  1546   1484   1485 1
  1547   1484   1486 2
  1548   1499   1500 1
  1549   1499   1501 1
  1550   1499   1502 1
  1551   1502   1503 1
  1552   1503   1504 1
  1553   1504   1505 1
  1554   1504   1506 1
  1555   1505   1509 1
  1556   1506   1507 1
  1557   1506   1508 1
  1558   1508   1509 1
  1559   1509   1510 1
  1560   1510   1511 am
  1561   1510   1517 1
  1562   1511   1512 2
  1563   1511   1513 1
  1564   1513   1514 2
  1565   1514   1515 2
  1566   1514   1516 2
  1567   1516   1517 2
  1568   1529   1530 1
  1569   1529   1531 1
  1570   1529   1532 1
  1571   1532   1533 1
  1572   1533   1534 1
  1573   1534   1535 1
  1574   1534   1536 1
  1575   1535   1539 1
  1576   1536   1537 1
  1577   1536   1538 1
  1578   1538   1539 1
  1579   1539   1540 1
  1580   1540   1541 ar
  1581   1540   1549 ar
  1582   1541   1542 ar
  1583   1542   1543 ar
  1584   1543   1544 ar
  1585   1543   1549 ar
  1586   1544   1545 1
  1587   1544   1546 ar
  1588   1546   1547 ar
  1589   1547   1548 ar
  1590   1548   1549 ar
  1591   1561   1562 1
  1592   1561   1563 1
  1593   1561   1564 1
  1594   1564   1565 1
  1595   1565   1566 1
  1596   1566   1567 1
  1597   1566   1568 1
  1598   1567   1571 1
  1599   1568   1569 1
  1600   1568   1570 1
  1601   1570   1571 1
  1602   1571   1572 1
  1603   1572   1573 am
  1604   1572   1579 1
  1605   1573   1574 2
  1606   1573   1575 1
  1607   1575   1576 2
  1608   1576   1577 2
  1609   1576   1578 2
  1610   1578   1579 2
  1611   1591   1592 1
  1612   1591   1593 1
  1613   1591   1594 1
  1614   1594   1595 1
  1615   1595   1596 1
  1616   1596   1597 1
  1617   1596   1598 1
  1618   1597   1601 1
  1619   1598   1599 1
  1620   1598   1600 1
  1621   1600   1601 1
  1622   1601   1602 1
  1623   1602   1603 ar
  1624   1602   1612 ar
  1625   1603   1604 ar
  1626   1604   1605 ar
  1627   1605   1606 1
  1628   1605   1612 ar
  1629   1606   1607 2
  1630   1606   1608 am
  1631   1608   1609 1
  1632   1609   1610 2
  1633   1609   1611 2
  1634   1611   1612 1
  1635   1624   1625 1
  1636   1624   1626 1
  1637   1624   1627 1
  1638   1627   1628 1
  1639   1628   1629 1
  1640   1629   1630 1
  1641   1629   1631 1
  1642   1630   1634 1
  1643   1631   1632 1
  1644   1631   1633 1
  1645   1633   1634 1
  1646   1634   1635 1
  1647   1635   1636 am
  1648   1635   1643 1
  1649   1636   1637 2
  1650   1636   1638 am
  1651   1638   1639 am
  1652   1639   1640 2
  1653   1639   1641 1
  1654   1641   1642 1
  1655   1641   1643 2
  1656   1656   1657 1
  1657   1656   1658 1
  1658   1656   1659 1
  1659   1659   1660 1
  1660   1660   1661 1
  1661   1661   1662 1
  1662   1661   1663 1
  1663   1662   1666 1
  1664   1663   1664 1
  1665   1663   1665 1
  1666   1665   1666 1
  1667   1666   1667 1
  1668   1667   1668 ar
  1669   1667   1677 ar
  1670   1668   1669 ar
  1671   1669   1670 ar
  1672   1670   1671 1
  1673   1670   1677 ar
  1674   1671   1672 2
  1675   1671   1673 am
  1676   1673   1674 1
  1677   1674   1675 2
  1678   1674   1676 2
  1679   1676   1677 1
  1680   1689   1690 1
  1681   1689   1691 1
  1682   1689   1692 1
  1683   1692   1693 1
  1684   1693   1694 1
  1685   1694   1695 1
  1686   1694   1696 1
  1687   1695   1699 1
  1688   1696   1697 1
  1689   1696   1698 1
  1690   1698   1699 1
  1691   1699   1700 1
  1692   1700   1701 ar
  1693   1700   1709 ar
  1694   1701   1702 ar
  1695   1702   1703 ar
  1696   1703   1704 ar
  1697   1703   1709 ar
  1698   1704   1705 1
  1699   1704   1706 ar
  1700   1706   1707 ar
  1701   1707   1708 ar
  1702   1708   1709 ar
  1703   1721   1722 1
  1704   1721   1723 1
  1705   1721   1724 1
  1706   1724   1725 1
  1707   1725   1726 1
  1708   1726   1727 1
  1709   1726   1728 1
  1710   1727   1731 1
  1711   1728   1729 1
  1712   1728   1730 1
  1713   1730   1731 1
  1714   1731   1732 1
  1715   1732   1733 ar
  1716   1732   1741 ar
  1717   1733   1734 ar
  1718   1734   1735 ar
  1719   1735   1736 ar
  1720   1735   1741 ar
  1721   1736   1737 1
  1722   1736   1738 ar
  1723   1738   1739 ar
  1724   1739   1740 ar
  1725   1740   1741 ar
  1726   1753   1754 1
  1727   1753   1755 1
  1728   1753   1756 1
  1729   1756   1757 1
  1730   1757   1758 1
  1731   1758   1759 1
  1732   1758   1760 1
  1733   1759   1763 1
  1734   1760   1761 1
  1735   1760   1762 1
  1736   1762   1763 1
  1737   1763   1764 1
  1738   1764   1765 am
  1739   1764   1772 1
  1740   1765   1766 2
  1741   1765   1767 am
  1742   1767   1768 am
  1743   1768   1769 2
  1744   1768   1770 1
  1745   1770   1771 1
  1746   1770   1772 2
  1747   1785   1786 1
  1748   1785   1787 1
  1749   1785   1788 1
  1750   1788   1789 1
  1751   1789   1790 1
  1752   1790   1791 1
  1753   1790   1792 1
  1754   1791   1795 1
  1755   1792   1793 1
  1756   1792   1794 1
  1757   1794   1795 1
  1758   1795   1796 1
  1759   1796   1797 am
  1760   1796   1804 1
  1761   1797   1798 2
  1762   1797   1799 am
  1763   1799   1800 am
  1764   1800   1801 2
  1765   1800   1802 1
  1766   1802   1803 1
  1767   1802   1804 2
  1768   1817   1818 1
  1769   1817   1819 1
  1770   1817   1820 1
  1771   1820   1821 1
  1772   1821   1822 1
  1773   1822   1823 1
  1774   1822   1824 1
  1775   1823   1827 1
  1776   1824   1825 1
  1777   1824   1826 1
  1778   1826   1827 1
  1779   1827   1828 1
  1780   1828   1829 am
  1781   1828   1835 1
  1782   1829   1830 2
  1783   1829   1831 1
  1784   1831   1832 2
  1785   1832   1833 2
  1786   1832   1834 2
  1787   1834   1835 2
  1788   1847   1848 1
  1789   1847   1849 1
  1790   1847   1850 1
  1791   1850   1851 1
  1792   1851   1852 1
  1793   1852   1853 1
  1794   1852   1854 1
  1795   1853   1857 1
  1796   1854   1855 1
  1797   1854   1856 1
  1798   1856   1857 1
  1799   1857   1858 1
  1800   1858   1859 ar
  1801   1858   1867 ar
  1802   1859   1860 ar
  1803   1860   1861 ar
  1804   1861   1862 ar
  1805   1861   1867 ar
  1806   1862   1863 1
  1807   1862   1864 ar
  1808   1864   1865 ar
  1809   1865   1866 ar
  1810   1866   1867 ar
  1811   1879   1880 1
  1812   1879   1881 1
  1813   1879   1882 1
  1814   1882   1883 1
  1815   1883   1884 1
  1816   1884   1885 1
  1817   1884   1886 1
  1818   1885   1889 1
  1819   1886   1887 1
  1820   1886   1888 1
  1821   1888   1889 1
  1822   1889   1890 1
  1823   1890   1891 am
  1824   1890   1897 1
  1825   1891   1892 2
  1826   1891   1893 1
  1827   1893   1894 2
  1828   1894   1895 2
  1829   1894   1896 2
  1830   1896   1897 2
  1831   1295   1277 1
  1832   1296   1277 1
  1833   1297   1278 1
  1834   1298   1280 1
  1835   1299   1282 1
  1836   1300   1282 1
  1837   1301   1283 1
  1838   1302   1285 1
  1839   1303   1290 1
  1840   1326   1310 1
  1841   1327   1310 1
  1842   1328   1311 1
  1843   1329   1313 1
  1844   1330   1315 1
  1845   1331   1315 1
  1846   1332   1316 1
  1847   1333   1320 1
  1848   1334   1325 1
  1849   1360   1342 1
  1850   1361   1342 1
  1851   1362   1343 1
  1852   1363   1345 1
  1853   1364   1347 1
  1854   1365   1347 1
  1855   1366   1348 1
  1856   1367   1350 1
  1857   1368   1355 1
  1858   1392   1375 1
  1859   1393   1375 1
  1860   1394   1376 1
  1861   1395   1378 1
  1862   1396   1380 1
  1863   1397   1380 1
  1864   1398   1381 1
  1865   1399   1383 1
  1866   1400   1389 1
  1867   1424   1407 1
  1868   1425   1407 1
  1869   1426   1408 1
  1870   1427   1410 1
  1871   1428   1412 1
  1872   1429   1412 1
  1873   1430   1413 1
  1874   1431   1415 1
  1875   1432   1421 1
  1876   1455   1439 1
  1877   1456   1439 1
  1878   1457   1440 1
  1879   1458   1442 1
  1880   1459   1444 1
  1881   1460   1444 1
  1882   1461   1445 1
  1883   1462   1449 1
  1884   1463   1454 1
  1885   1487   1471 1
  1886   1488   1471 1
  1887   1489   1472 1
  1888   1490   1474 1
  1889   1491   1476 1
  1890   1492   1476 1
  1891   1493   1477 1
  1892   1494   1481 1
  1893   1495   1486 1
  1894   1518   1503 1
  1895   1519   1503 1
  1896   1520   1504 1
  1897   1521   1506 1
  1898   1522   1508 1
  1899   1523   1508 1
  1900   1524   1509 1
  1901   1525   1516 1
  1902   1526   1517 1
  1903   1550   1533 1
  1904   1551   1533 1
  1905   1552   1534 1
  1906   1553   1536 1
  1907   1554   1538 1
  1908   1555   1538 1
  1909   1556   1539 1
  1910   1557   1541 1
  1911   1558   1547 1
  1912   1580   1565 1
  1913   1581   1565 1
  1914   1582   1566 1
  1915   1583   1568 1
  1916   1584   1570 1
  1917   1585   1570 1
  1918   1586   1571 1
  1919   1587   1578 1
  1920   1588   1579 1
  1921   1613   1595 1
  1922   1614   1595 1
  1923   1615   1596 1
  1924   1616   1598 1
  1925   1617   1600 1
  1926   1618   1600 1
  1927   1619   1601 1
  1928   1620   1603 1
  1929   1621   1608 1
  1930   1644   1628 1
  1931   1645   1628 1
  1932   1646   1629 1
  1933   1647   1631 1
  1934   1648   1633 1
  1935   1649   1633 1
  1936   1650   1634 1
  1937   1651   1638 1
  1938   1652   1643 1
  1939   1678   1660 1
  1940   1679   1660 1
  1941   1680   1661 1
  1942   1681   1663 1
  1943   1682   1665 1
  1944   1683   1665 1
  1945   1684   1666 1
  1946   1685   1668 1
  1947   1686   1673 1
  1948   1710   1693 1
  1949   1711   1693 1
  1950   1712   1694 1
  1951   1713   1696 1
  1952   1714   1698 1
  1953   1715   1698 1
  1954   1716   1699 1
  1955   1717   1701 1
  1956   1718   1707 1
  1957   1742   1725 1
  1958   1743   1725 1
  1959   1744   1726 1
  1960   1745   1728 1
  1961   1746   1730 1
  1962   1747   1730 1
  1963   1748   1731 1
  1964   1749   1733 1
  1965   1750   1739 1
  1966   1773   1757 1
  1967   1774   1757 1
  1968   1775   1758 1
  1969   1776   1760 1
  1970   1777   1762 1
  1971   1778   1762 1
  1972   1779   1763 1
  1973   1780   1767 1
  1974   1781   1772 1
  1975   1805   1789 1
  1976   1806   1789 1
  1977   1807   1790 1
  1978   1808   1792 1
  1979   1809   1794 1
  1980   1810   1794 1
  1981   1811   1795 1
  1982   1812   1799 1
  1983   1813   1804 1
  1984   1836   1821 1
  1985   1837   1821 1
  1986   1838   1822 1
  1987   1839   1824 1
  1988   1840   1826 1
  1989   1841   1826 1
  1990   1842   1827 1
  1991   1843   1834 1
  1992   1844   1835 1
  1993   1868   1851 1
  1994   1869   1851 1
  1995   1870   1852 1
  1996   1871   1854 1
  1997   1872   1856 1
  1998   1873   1856 1
  1999   1874   1857 1
  2000   1875   1859 1
  2001   1876   1865 1
  2002   1898   1883 1
  2003   1899   1883 1
  2004   1900   1884 1
  2005   1901   1886 1
  2006   1902   1888 1
  2007   1903   1888 1
  2008   1904   1889 1
  2009   1905   1896 1
  2010   1906   1897 1
  2011   1304   1292 1
  2012   1305   1292 1
  2013   1369   1357 1
  2014   1370   1357 1
  2015   1527   1515 1
  2016   1528   1515 1
  2017   1589   1577 1
  2018   1590   1577 1
  2019   1622   1610 1
  2020   1623   1610 1
  2021   1687   1675 1
  2022   1688   1675 1
  2023   1845   1833 1
  2024   1846   1833 1
  2025   1907   1895 1
  2026   1908   1895 1
  2027   1401   1387 1
  2028   1402   1387 1
  2029   1433   1419 1
  2030   1434   1419 1
  2031   1559   1545 1
  2032   1560   1545 1
  2033   1719   1705 1
  2034   1720   1705 1
  2035   1751   1737 1
  2036   1752   1737 1
  2037   1877   1863 1
  2038   1878   1863 1
  2039   1335   1324 1
  2040   1336   1324 1
  2041   1337   1324 1
  2042   1464   1453 1
  2043   1465   1453 1
  2044   1466   1453 1
  2045   1496   1485 1
  2046   1497   1485 1
  2047   1498   1485 1
  2048   1653   1642 1
  2049   1654   1642 1
  2050   1655   1642 1
  2051   1782   1771 1
  2052   1783   1771 1
  2053   1784   1771 1
  2054   1814   1803 1
  2055   1815   1803 1
  2056   1816   1803 1
  2057   1569   1909 1
  2058   1591   2141 1
  2059   1917   1942 1
  2060   1950   1974 1
  2061   1982   2007 1
  2062   2047   2071 1
  2063   2079   2101 1
  2064   2109   2133 1
  2065   1909   1910 1
  2066   1909   1911 1
  2067   1909   1912 1
  2068   1912   1913 1
  2069   1913   1914 1
  2070   1914   1915 1
  2071   1914   1916 1
  2072   1915   1919 1
  2073   1916   1917 1
  2074   1916   1918 1
  2075   1918   1919 1
  2076   1919   1920 1
  2077   1920   1921 ar
  2078   1920   1930 ar
  2079   1921   1922 ar
  2080   1922   1923 ar
  2081   1923   1924 1
  2082   1923   1930 ar
  2083   1924   1925 2
  2084   1924   1926 am
  2085   1926   1927 1
  2086   1927   1928 2
  2087   1927   1929 2
  2088   1929   1930 1
  2089   1942   1943 1
  2090   1942   1944 1
  2091   1942   1945 1
  2092   1945   1946 1
  2093   1946   1947 1
  2094   1947   1948 1
  2095   1947   1949 1
  2096   1948   1952 1
  2097   1949   1950 1
  2098   1949   1951 1
  2099   1951   1952 1
  2100   1952   1953 1
  2101   1953   1954 am
  2102   1953   1961 1
  2103   1954   1955 2
  2104   1954   1956 am
  2105   1956   1957 am
  2106   1957   1958 2
  2107   1957   1959 1
  2108   1959   1960 1
  2109   1959   1961 2
  2110   1974   1975 1
  2111   1974   1976 1
  2112   1974   1977 1
  2113   1977   1978 1
  2114   1978   1979 1
  2115   1979   1980 1
  2116   1979   1981 1
  2117   1980   1984 1
  2118   1981   1982 1
  2119   1981   1983 1
  2120   1983   1984 1
  2121   1984   1985 1
  2122   1985   1986 ar
  2123   1985   1995 ar
  2124   1986   1987 ar
  2125   1987   1988 ar
  2126   1988   1989 1
  2127   1988   1995 ar
  2128   1989   1990 2
  2129   1989   1991 am
  2130   1991   1992 1
  2131   1992   1993 2
  2132   1992   1994 2
  2133   1994   1995 1
  2134   2007   2008 1
  2135   2007   2009 1
  2136   2007   2010 1
  2137   2010   2011 1
  2138   2011   2012 1
  2139   2012   2013 1
  2140   2012   2014 1
  2141   2013   2017 1
  2142   2014   2015 1
  2143   2014   2016 1
  2144   2016   2017 1
  2145   2017   2018 1
  2146   2018   2019 ar
  2147   2018   2027 ar
  2148   2019   2020 ar
  2149   2020   2021 ar
  2150   2021   2022 ar
  2151   2021   2027 ar
  2152   2022   2023 1
  2153   2022   2024 ar
  2154   2024   2025 ar
  2155   2025   2026 ar
  2156   2026   2027 ar
  2157   2039   2040 1
  2158   2039   2041 1
  2159   2039   2042 1
  2160   2042   2043 1
  2161   2043   2044 1
  2162   2044   2045 1
  2163   2044   2046 1
  2164   2045   2049 1
  2165   2046   2047 1
  2166   2046   2048 1
  2167   2048   2049 1
  2168   2049   2050 1
  2169   2050   2051 am
  2170   2050   2058 1
  2171   2051   2052 2
  2172   2051   2053 am
  2173   2053   2054 am
  2174   2054   2055 2
  2175   2054   2056 1
  2176   2056   2057 1
  2177   2056   2058 2
  2178   2071   2072 1
  2179   2071   2073 1
  2180   2071   2074 1
  2181   2074   2075 1
  2182   2075   2076 1
  2183   2076   2077 1
  2184   2076   2078 1
  2185   2077   2081 1
  2186   2078   2079 1
  2187   2078   2080 1
  2188   2080   2081 1
  2189   2081   2082 1
  2190   2082   2083 am
  2191   2082   2089 1
  2192   2083   2084 2
  2193   2083   2085 1
  2194   2085   2086 2
  2195   2086   2087 2
  2196   2086   2088 2
  2197   2088   2089 2
  2198   2101   2102 1
  2199   2101   2103 1
  2200   2101   2104 1
  2201   2104   2105 1
  2202   2105   2106 1
  2203   2106   2107 1
  2204   2106   2108 1
  2205   2107   2111 1
  2206   2108   2109 1
  2207   2108   2110 1
  2208   2110   2111 1
  2209   2111   2112 1
  2210   2112   2113 ar
  2211   2112   2121 ar
  2212   2113   2114 ar
  2213   2114   2115 ar
  2214   2115   2116 ar
  2215   2115   2121 ar
  2216   2116   2117 1
  2217   2116   2118 ar
  2218   2118   2119 ar
  2219   2119   2120 ar
  2220   2120   2121 ar
  2221   2133   2134 1
  2222   2133   2135 1
  2223   2133   2136 1
  2224   2136   2137 1
  2225   2137   2138 1
  2226   2138   2139 1
  2227   2138   2140 1
  2228   2139   2143 1
  2229   2140   2141 1
  2230   2140   2142 1
  2231   2142   2143 1
  2232   2143   2144 1
  2233   2144   2145 am
  2234   2144   2151 1
  2235   2145   2146 2
  2236   2145   2147 1
  2237   2147   2148 2
  2238   2148   2149 2
  2239   2148   2150 2
  2240   2150   2151 2
  2241   1931   1913 1
  2242   1932   1913 1
  2243   1933   1914 1
  2244   1934   1916 1
  2245   1935   1918 1
  2246   1936   1918 1
  2247   1937   1919 1
  2248   1938   1921 1
  2249   1939   1926 1
  2250   1962   1946 1
  2251   1963   1946 1
  2252   1964   1947 1
  2253   1965   1949 1
  2254   1966   1951 1
  2255   1967   1951 1
  2256   1968   1952 1
  2257   1969   1956 1
  2258   1970   1961 1
  2259   1996   1978 1
  2260   1997   1978 1
  2261   1998   1979 1
  2262   1999   1981 1
  2263   2000   1983 1
  2264   2001   1983 1
  2265   2002   1984 1
  2266   2003   1986 1
  2267   2004   1991 1
  2268   2028   2011 1
  2269   2029   2011 1
  2270   2030   2012 1
  2271   2031   2014 1
  2272   2032   2016 1
  2273   2033   2016 1
  2274   2034   2017 1
  2275   2035   2019 1
  2276   2036   2025 1
  2277   2059   2043 1
  2278   2060   2043 1
  2279   2061   2044 1
  2280   2062   2046 1
  2281   2063   2048 1
  2282   2064   2048 1
  2283   2065   2049 1
  2284   2066   2053 1
  2285   2067   2058 1
  2286   2090   2075 1
  2287   2091   2075 1
  2288   2092   2076 1
  2289   2093   2078 1
  2290   2094   2080 1
  2291   2095   2080 1
  2292   2096   2081 1
  2293   2097   2088 1
  2294   2098   2089 1
  2295   2122   2105 1
  2296   2123   2105 1
  2297   2124   2106 1
  2298   2125   2108 1
  2299   2126   2110 1
  2300   2127   2110 1
  2301   2128   2111 1
  2302   2129   2113 1
  2303   2130   2119 1
  2304   2152   2137 1
  2305   2153   2137 1
  2306   2154   2138 1
  2307   2155   2140 1
  2308   2156   2142 1
  2309   2157   2142 1
  2310   2158   2143 1
  2311   2159   2150 1
  2312   2160   2151 1
  2313   1940   1928 1
  2314   1941   1928 1
  2315   2005   1993 1
  2316   2006   1993 1
  2317   2099   2087 1
  2318   2100   2087 1
  2319   2161   2149 1
  2320   2162   2149 1
  2321   2037   2023 1
  2322   2038   2023 1
  2323   2131   2117 1
  2324   2132   2117 1
  2325   1971   1960 1
  2326   1972   1960 1
  2327   1973   1960 1
  2328   2068   2057 1
  2329   2069   2057 1
  2330   2070   2057 1
@<TRIPOS>MOLECULE
dna-seg-07-bp33
2100 2263 1 0 0
BIOPOLYMER
NO_CHARGES


@<TRIPOS>ATOM
      1 P         -5.1030     8.8859   742.5983 P.3      235 DA      0.0000
      2 OP1       -6.1710     9.7165   741.9312 O.co2    235 DA      0.0000
      3 OP2       -4.1416     9.6391   743.4292 O.co2    235 DA      0.0000
      4 O5'       -5.8811     7.5983   743.1291 O.3      235 DA      0.0000
      5 C5'       -6.7127     6.7834   742.3048 C.3      235 DA      0.0000
      6 C4'       -6.6443     5.3591   742.8271 C.3      235 DA      0.0000
      7 O4'       -5.3254     4.8915   742.8553 O.3      235 DA      0.0000
      8 C3'       -7.2464     5.0852   744.1944 C.3      235 DA      0.0000
      9 O3'       -8.3539     4.1880   744.1166 O.3      235 DA      0.0000
     10 C2'       -6.0576     4.5830   745.0231 C.3      235 DA      0.0000
     11 C1'       -5.1029     4.0451   744.0293 C.3      235 DA      0.0000
     12 N9        -3.6535     4.0704   744.2974 N.ar     235 DA      0.0000
     13 C8        -2.7949     5.1367   744.4126 C.ar     235 DA      0.0000
     14 N7        -1.5386     4.7984   744.5819 N.ar     235 DA      0.0000
     15 C5        -1.5619     3.4079   744.5449 C.ar     235 DA      0.0000
     16 C6        -0.5250     2.4392   744.6653 C.ar     235 DA      0.0000
     17 N6         0.7607     2.7068   744.8570 N.pl3    235 DA      0.0000
     18 N1        -0.9231     1.1294   744.5671 N.ar     235 DA      0.0000
     19 C2        -2.2375     0.8149   744.3781 C.ar     235 DA      0.0000
     20 N3        -3.2517     1.6657   744.2702 N.ar     235 DA      0.0000
     21 C4        -2.8454     2.9480   744.3621 C.ar     235 DA      0.0000
     22 H5'       -6.3577     6.8164   741.2747 H        235 DA      0.0000
     23 H5''      -7.7408     7.1426   742.3507 H        235 DA      0.0000
     24 H4'       -7.1844     4.7358   742.1144 H        235 DA      0.0000
     25 H3'       -7.5918     6.0284   744.6176 H        235 DA      0.0000
     26 H2'       -5.6071     5.4024   745.5834 H        235 DA      0.0000
     27 H2''      -6.3787     3.7937   745.7027 H        235 DA      0.0000
     28 H1'       -5.3941     3.0240   743.7833 H        235 DA      0.0000
     29 H8        -3.1252     6.1639   744.3677 H        235 DA      0.0000
     30 H2        -2.4783    -0.2357   744.3089 H        235 DA      0.0000
     31 H61        1.0809     3.6075   745.1831 H        235 DA      0.0000
     32 H62        1.4422     1.9852   744.6702 H        235 DA      0.0000
     33 P         -9.6687     4.2243   745.0728 P.3      236 DT      0.0000
     34 OP1      -10.9468     3.9900   744.2755 O.co2    236 DT      0.0000
     35 OP2       -9.6716     5.4172   745.8934 O.co2    236 DT      0.0000
     36 O5'       -9.5233     2.8024   745.8865 O.3      236 DT      0.0000
     37 C5'       -9.0570     1.7469   744.9414 C.3      236 DT      0.0000
     38 C4'       -8.0364     0.9654   745.7291 C.3      236 DT      0.0000
     39 O4'       -6.8209     1.6536   745.9211 O.3      236 DT      0.0000
     40 C3'       -8.5330     0.6220   747.1457 C.3      236 DT      0.0000
     41 O3'       -9.0406    -0.6995   747.1474 O.3      236 DT      0.0000
     42 C2'       -7.3180     0.8440   748.0430 C.3      236 DT      0.0000
     43 C1'       -6.2041     0.9379   747.0783 C.3      236 DT      0.0000
     44 N1        -4.9905     1.6636   747.4181 N.am     236 DT      0.0000
     45 C2        -3.8271     0.9129   747.5560 C.2      236 DT      0.0000
     46 O2        -3.8759    -0.3072   747.4680 O.2      236 DT      0.0000
     47 N3        -2.6620     1.5715   747.8100 N.am     236 DT      0.0000
     48 C4        -2.5937     2.9300   747.9302 C.2      236 DT      0.0000
     49 O4        -1.4699     3.4696   748.1854 O.2      236 DT      0.0000
     50 C5        -3.8009     3.6843   747.7586 C.2      236 DT      0.0000
     51 C7        -3.7766     5.1851   747.8461 C.3      236 DT      0.0000
     52 C6        -4.9469     3.0300   747.5028 C.2      236 DT      0.0000
     53 H5'       -9.8853     1.1058   744.6398 H        236 DT      0.0000
     54 H5''      -8.5924     2.2014   744.0664 H        236 DT      0.0000
     55 H4'       -7.8283     0.0354   745.2000 H        236 DT      0.0000
     56 H3'       -9.3250     1.3149   747.4300 H        236 DT      0.0000
     57 H2'       -7.4180     1.7655   748.6164 H        236 DT      0.0000
     58 H2''      -7.1751    -0.0067   748.7094 H        236 DT      0.0000
     59 H1'       -5.9314    -0.0686   746.7610 H        236 DT      0.0000
     60 H3        -1.8140     1.0329   747.9137 H        236 DT      0.0000
     61 H6        -5.8559     3.5957   747.3607 H        236 DT      0.0000
     62 H71       -2.7617     5.5208   748.0592 H        236 DT      0.0000
     63 H72       -4.1080     5.6094   746.8983 H        236 DT      0.0000
     64 H73       -4.4429     5.5134   748.6439 H        236 DT      0.0000
     65 P         -9.8401    -1.4383   748.2540 P.3      237 DT      0.0000
     66 OP1      -10.6580    -2.6049   747.6419 O.co2    237 DT      0.0000
     67 OP2      -10.7189    -0.4195   748.8840 O.co2    237 DT      0.0000
     68 O5'       -8.7200    -2.1724   749.1363 O.3      237 DT      0.0000
     69 C5'       -8.0847    -3.2680   748.4246 C.3      237 DT      0.0000
     70 C4'       -6.7986    -3.5947   749.1007 C.3      237 DT      0.0000
     71 O4'       -5.8517    -2.5338   749.0774 O.3      237 DT      0.0000
     72 C3'       -6.9446    -4.0252   750.5673 C.3      237 DT      0.0000
     73 O3'       -6.1237    -5.1471   750.8314 O.3      237 DT      0.0000
     74 C2'       -6.3872    -2.7838   751.3037 C.3      237 DT      0.0000
     75 C1'       -5.1968    -2.5349   750.4001 C.3      237 DT      0.0000
     76 N1        -4.5726    -1.2590   750.6978 N.am     237 DT      0.0000
     77 C2        -3.1897    -1.1965   750.7526 C.2      237 DT      0.0000
     78 O2        -2.5386    -2.2252   750.5642 O.2      237 DT      0.0000
     79 N3        -2.6073     0.0107   751.0185 N.am     237 DT      0.0000
     80 C4        -3.3391     1.1395   751.2256 C.2      237 DT      0.0000
     81 O4        -2.7301     2.2246   751.4489 O.2      237 DT      0.0000
     82 C5        -4.7610     1.0643   751.1605 C.2      237 DT      0.0000
     83 C7        -5.6365     2.2653   751.3704 C.3      237 DT      0.0000
     84 C6        -5.3165    -0.1293   750.8994 C.2      237 DT      0.0000
     85 H5'       -8.7375    -4.1409   748.4370 H        237 DT      0.0000
     86 H5''      -7.8908    -2.9710   747.3938 H        237 DT      0.0000
     87 H4'       -6.3559    -4.4327   748.5622 H        237 DT      0.0000
     88 H3'       -7.9851    -4.2163   750.8298 H        237 DT      0.0000
     89 H2'       -7.0901    -1.9507   751.3024 H        237 DT      0.0000
     90 H2''      -6.0705    -3.0331   752.3164 H        237 DT      0.0000
     91 H1'       -4.4747    -3.3478   750.4757 H        237 DT      0.0000
     92 H3        -1.5998     0.0672   751.0630 H        237 DT      0.0000
     93 H6        -6.3928    -0.2003   750.8463 H        237 DT      0.0000
     94 H71       -5.0150     3.1383   751.5693 H        237 DT      0.0000
     95 H72       -6.2330     2.4406   750.4751 H        237 DT      0.0000
     96 H73       -6.2977     2.0891   752.2188 H        237 DT      0.0000
     97 P         -6.3221    -6.5803   751.4393 P.3      238 DC      0.0000
     98 OP1       -6.2252    -7.6528   750.3714 O.co2    238 DC      0.0000
     99 OP2       -7.5987    -6.5188   752.1743 O.co2    238 DC      0.0000
    100 O5'       -4.9164    -6.6232   752.2654 O.3      238 DC      0.0000
    101 C5'       -3.9056    -6.2938   751.2431 C.3      238 DC      0.0000
    102 C4'       -2.5757    -6.2405   751.9396 C.3      238 DC      0.0000
    103 O4'       -2.1508    -4.9360   752.1865 O.3      238 DC      0.0000
    104 C3'       -2.4888    -7.0460   753.2311 C.3      238 DC      0.0000
    105 O3'       -1.4314    -7.9927   753.1514 O.3      238 DC      0.0000
    106 C2'       -2.3899    -5.9361   754.2798 C.3      238 DC      0.0000
    107 C1'       -1.7191    -4.8190   753.5834 C.3      238 DC      0.0000
    108 N1        -2.1638    -3.4618   753.9155 N.am     238 DC      0.0000
    109 C2        -1.1543    -2.5364   754.1713 C.2      238 DC      0.0000
    110 O2         0.0352    -2.8676   754.1758 O.2      238 DC      0.0000
    111 N3        -1.5341    -1.2456   754.4452 N.2      238 DC      0.0000
    112 C4        -2.8457    -0.8718   754.4352 C.2      238 DC      0.0000
    113 N4        -3.1121     0.3998   754.7121 N.pl3    238 DC      0.0000
    114 C5        -3.8572    -1.8174   754.1572 C.2      238 DC      0.0000
    115 C6        -3.4682    -3.0815   753.8924 C.2      238 DC      0.0000
    116 H5'       -3.8921    -7.0615   750.4694 H        238 DC      0.0000
    117 H5''      -4.1303    -5.3241   750.7989 H        238 DC      0.0000
    118 H4'       -1.8499    -6.6773   751.2536 H        238 DC      0.0000
    119 H3'       -3.4277    -7.5808   753.3743 H        238 DC      0.0000
    120 H2'       -3.3822    -5.6375   754.6177 H        238 DC      0.0000
    121 H2''      -1.7879    -6.2690   755.1254 H        238 DC      0.0000
    122 H1'       -0.6355    -4.9044   753.6644 H        238 DC      0.0000
    123 H5        -4.9009    -1.5394   754.1566 H        238 DC      0.0000
    124 H6        -4.2208    -3.8183   753.6534 H        238 DC      0.0000
    125 H41       -2.3584     1.0419   754.9113 H        238 DC      0.0000
    126 H42       -4.0685     0.7246   754.7234 H        238 DC      0.0000
    127 P         -1.2300    -9.2913   754.1034 P.3      239 DA      0.0000
    128 OP1       -0.4249   -10.3022   753.3097 O.co2    239 DA      0.0000
    129 OP2       -2.5692    -9.8099   754.4490 O.co2    239 DA      0.0000
    130 O5'       -0.4021    -8.7077   755.4004 O.3      239 DA      0.0000
    131 C5'        0.8206    -7.9655   755.1052 C.3      239 DA      0.0000
    132 C4'        1.4112    -7.4121   756.3605 C.3      239 DA      0.0000
    133 O4'        1.1356    -6.0291   756.6026 O.3      239 DA      0.0000
    134 C3'        0.9346    -8.0711   757.6657 C.3      239 DA      0.0000
    135 O3'        1.8817    -7.7787   758.6956 O.3      239 DA      0.0000
    136 C2'       -0.3727    -7.2825   757.8803 C.3      239 DA      0.0000
    137 C1'        0.2332    -5.8870   757.6970 C.3      239 DA      0.0000
    138 N9        -0.8375    -4.9090   757.6027 N.ar     239 DA      0.0000
    139 C8        -2.1895    -5.0771   757.4869 C.ar     239 DA      0.0000
    140 N7        -2.8913    -3.9581   757.4683 N.ar     239 DA      0.0000
    141 C5        -1.9193    -2.9735   757.5758 C.ar     239 DA      0.0000
    142 C6        -2.0004    -1.5596   757.6104 C.ar     239 DA      0.0000
    143 N6        -3.1247    -0.8714   757.5251 N.pl3    239 DA      0.0000
    144 N1        -0.8163    -0.8924   757.7429 N.ar     239 DA      0.0000
    145 C2         0.3734    -1.5660   757.8231 C.ar     239 DA      0.0000
    146 N3         0.5298    -2.8874   757.7933 N.ar     239 DA      0.0000
    147 C4        -0.6556    -3.5334   757.6702 C.ar     239 DA      0.0000
    148 H5'        1.5412    -8.6340   754.6341 H        239 DA      0.0000
    149 H5''       0.5897    -7.1466   754.4239 H        239 DA      0.0000
    150 H4'        2.4929    -7.5317   756.3016 H        239 DA      0.0000
    151 H3'        0.7610    -9.1411   757.5521 H        239 DA      0.0000
    152 H2'       -1.1286    -7.5127   757.1295 H        239 DA      0.0000
    153 H2''      -0.7595    -7.4194   758.8902 H        239 DA      0.0000
    154 H1'        0.8194    -5.6569   758.5867 H        239 DA      0.0000
    155 H8        -2.6493    -6.0518   757.4159 H        239 DA      0.0000
    156 H2         1.2682    -0.9691   757.9196 H        239 DA      0.0000
    157 H61       -3.3765     0.0900   757.7051 H        239 DA      0.0000
    158 H62       -3.9049    -1.4302   757.2104 H        239 DA      0.0000
    159 P          3.2435    -8.6071   758.8361 P.3      240 DC      0.0000
    160 OP1        3.6196    -9.3346   757.5910 O.co2    240 DC      0.0000
    161 OP2        2.9363    -9.5310   759.9790 O.co2    240 DC      0.0000
    162 O5'        4.3260    -7.4834   759.1193 O.3      240 DC      0.0000
    163 C5'        4.9159    -6.7091   758.0316 C.3      240 DC      0.0000
    164 C4'        5.2405    -5.3872   758.7365 C.3      240 DC      0.0000
    165 O4'        4.0154    -4.7655   759.0485 O.3      240 DC      0.0000
    166 C3'        6.0050    -5.5596   760.0464 C.3      240 DC      0.0000
    167 O3'        7.1963    -4.7436   760.1143 O.3      240 DC      0.0000
    168 C2'        4.9705    -5.2154   761.1286 C.3      240 DC      0.0000
    169 C1'        4.1202    -4.2178   760.4525 C.3      240 DC      0.0000
    170 N1         2.7127    -4.0509   760.8053 N.am     240 DC      0.0000
    171 C2         2.2473    -2.7376   760.7784 C.2      240 DC      0.0000
    172 O2         2.9816    -1.7797   760.5715 O.2      240 DC      0.0000
    173 N3         0.9260    -2.5376   761.0315 N.2      240 DC      0.0000
    174 C4         0.0670    -3.5592   761.2649 C.2      240 DC      0.0000
    175 N4        -1.2043    -3.2371   761.4958 N.pl3    240 DC      0.0000
    176 C5         0.5515    -4.8962   761.2714 C.2      240 DC      0.0000
    177 C6         1.8564    -5.0858   761.0220 C.2      240 DC      0.0000
    178 H5'        5.8171    -7.1864   757.6467 H        240 DC      0.0000
    179 H5''       4.1912    -6.5523   757.2325 H        240 DC      0.0000
    180 H4'        5.8117    -4.7474   758.0638 H        240 DC      0.0000
    181 H3'        6.2895    -6.6065   760.1523 H        240 DC      0.0000
    182 H2'        4.3937    -6.0946   761.4156 H        240 DC      0.0000
    183 H2''       5.4582    -4.7763   761.9989 H        240 DC      0.0000
    184 H1'        4.6195    -3.2490   760.4392 H        240 DC      0.0000
    185 H5        -0.1070    -5.7289   761.4699 H        240 DC      0.0000
    186 H6         2.2402    -6.0949   760.9923 H        240 DC      0.0000
    187 H41       -1.4898    -2.2684   761.4848 H        240 DC      0.0000
    188 H42       -1.8830    -3.9616   761.6819 H        240 DC      0.0000
    189 P         -6.2501     5.7430   763.0738 P.3      240 DG      0.0000
    190 OP1       -7.3877     6.6974   763.2526 O.co2    240 DG      0.0000
    191 OP2       -6.5070     4.7054   761.9890 O.co2    240 DG      0.0000
    192 O5'       -4.8543     6.5904   762.8666 O.3      240 DG      0.0000
    193 C5'       -3.8815     6.6432   763.9624 C.3      240 DG      0.0000
    194 C4'       -2.4940     6.5788   763.3281 C.3      240 DG      0.0000
    195 O4'       -2.0209     5.2630   763.2323 O.3      240 DG      0.0000
    196 C3'       -2.4145     7.1669   761.9217 C.3      240 DG      0.0000
    197 O3'       -1.2059     7.9152   761.6548 O.3      240 DG      0.0000
    198 C2'       -2.5193     5.9241   761.0195 C.3      240 DG      0.0000
    199 C1'       -1.7449     4.9087   761.8433 C.3      240 DG      0.0000
    200 N9        -2.2104     3.5383   761.5700 N.ar     240 DG      0.0000
    201 C8        -3.5041     3.1006   761.4133 C.ar     240 DG      0.0000
    202 N7        -3.6075     1.8166   761.1949 N.ar     240 DG      0.0000
    203 C5        -2.2911     1.3713   761.2197 C.ar     240 DG      0.0000
    204 C6        -1.7375     0.0726   761.0632 C.2      240 DG      0.0000
    205 O6        -2.3622    -0.9794   760.8664 O.2      240 DG      0.0000
    206 N1        -0.3678     0.0279   761.1502 N.am     240 DG      0.0000
    207 C2         0.3880     1.1314   761.3708 C.2      240 DG      0.0000
    208 N2         1.7020     0.9340   761.4342 N.pl3    240 DG      0.0000
    209 N3        -0.0821     2.3748   761.5286 N.2      240 DG      0.0000
    210 C4        -1.4260     2.4179   761.4453 C.ar     240 DG      0.0000
    211 H5'       -3.9957     7.5726   764.5201 H        240 DG      0.0000
    212 H5''      -4.0252     5.7915   764.6273 H        240 DG      0.0000
    213 H4'       -1.8076     7.1370   763.9648 H        240 DG      0.0000
    214 H3'       -3.2791     7.8084   761.7513 H        240 DG      0.0000
    215 H2'       -3.5557     5.6182   760.8768 H        240 DG      0.0000
    216 H2''      -2.0311     6.0988   760.0607 H        240 DG      0.0000
    217 H1'       -0.6776     4.9921   761.6380 H        240 DG      0.0000
    218 H8        -4.3585     3.7592   761.4661 H        240 DG      0.0000
    219 H1         0.0953    -0.8634   761.0454 H        240 DG      0.0000
    220 H21        2.0791     0.0041   761.3191 H        240 DG      0.0000
    221 H22        2.3226     1.7140   761.5973 H        240 DG      0.0000
    222 P         -0.7089     7.9094   760.1313 P.3      239 DT      0.0000
    223 OP1        0.0632     9.1407   759.7404 O.co2    239 DT      0.0000
    224 OP2       -2.0154     7.8495   759.4307 O.co2    239 DT      0.0000
    225 O5'        0.2220     6.6120   760.0004 O.3      239 DT      0.0000
    226 C5'        1.6492     6.7949   760.2680 C.3      239 DT      0.0000
    227 C4'        2.4176     5.7337   759.5110 C.3      239 DT      0.0000
    228 O4'        1.7517     4.4838   759.4837 O.3      239 DT      0.0000
    229 C3'        2.6661     6.1012   758.0563 C.3      239 DT      0.0000
    230 O3'        3.9620     5.6997   757.5612 O.3      239 DT      0.0000
    231 C2'        1.5423     5.3923   757.3334 C.3      239 DT      0.0000
    232 C1'        1.5319     4.0870   758.1115 C.3      239 DT      0.0000
    233 N1         0.1850     3.5144   757.9602 N.am     239 DT      0.0000
    234 C2         0.0899     2.1306   758.0670 C.2      239 DT      0.0000
    235 O2         1.0932     1.4514   758.2567 O.2      239 DT      0.0000
    236 N3        -1.1552     1.5794   757.9468 N.am     239 DT      0.0000
    237 C4        -2.2633     2.3421   757.7292 C.2      239 DT      0.0000
    238 O4        -3.3821     1.7376   757.6317 O.2      239 DT      0.0000
    239 C5        -2.1344     3.7564   757.6228 C.2      239 DT      0.0000
    240 C7        -3.3503     4.6077   757.3939 C.3      239 DT      0.0000
    241 C6        -0.9159     4.2894   757.7446 C.2      239 DT      0.0000
    242 H5'        1.9622     7.7842   759.9343 H        239 DT      0.0000
    243 H5''       1.8379     6.6919   761.3366 H        239 DT      0.0000
    244 H4'        3.3826     5.5966   759.9989 H        239 DT      0.0000
    245 H3'        2.5512     7.1780   757.9323 H        239 DT      0.0000
    246 H2'        0.5976     5.9283   757.4250 H        239 DT      0.0000
    247 H2''       1.7959     5.2222   756.2870 H        239 DT      0.0000
    248 H1'        2.3036     3.4017   757.7609 H        239 DT      0.0000
    249 H3        -1.2569     0.5773   758.0215 H        239 DT      0.0000
    250 H6        -0.7997     5.3605   757.6705 H        239 DT      0.0000
    251 H71       -4.2324     3.9712   757.3252 H        239 DT      0.0000
    252 H72       -3.4682     5.3033   758.2248 H        239 DT      0.0000
    253 H73       -3.2327     5.1671   756.4658 H        239 DT      0.0000
    254 P          4.6155     7.0117   756.7828 P.3      238 DG      0.0000
    255 OP1        5.5065     7.8360   757.6540 O.co2    238 DG      0.0000
    256 OP2        3.3523     7.6773   756.3772 O.co2    238 DG      0.0000
    257 O5'        5.5374     6.2792   755.7019 O.3      238 DG      0.0000
    258 C5'        6.8123     5.7330   756.1254 C.3      238 DG      0.0000
    259 C4'        6.7801     4.2771   755.6777 C.3      238 DG      0.0000
    260 O4'        5.5073     3.7249   755.9484 O.3      238 DG      0.0000
    261 C3'        7.0632     4.0687   754.1900 C.3      238 DG      0.0000
    262 O3'        8.1479     3.1819   753.9814 O.3      238 DG      0.0000
    263 C2'        5.7321     3.6206   753.6132 C.3      238 DG      0.0000
    264 C1'        5.0547     2.9758   754.7994 C.3      238 DG      0.0000
    265 N9         3.5966     3.0536   754.6758 N.ar     238 DG      0.0000
    266 C8         2.8170     4.1642   754.5169 C.ar     238 DG      0.0000
    267 N7         1.5351     3.9022   754.4389 N.ar     238 DG      0.0000
    268 C5         1.4637     2.5190   754.5764 C.ar     238 DG      0.0000
    269 C6         0.3616     1.6238   754.5859 C.2      238 DG      0.0000
    270 O6        -0.8269     1.9112   754.4868 O.2      238 DG      0.0000
    271 N1         0.6991     0.3086   754.7349 N.am     238 DG      0.0000
    272 C2         2.0041    -0.0999   754.8677 C.2      238 DG      0.0000
    273 N2         2.1924    -1.4129   755.0034 N.pl3    238 DG      0.0000
    274 N3         3.0842     0.6879   754.8720 N.2      238 DG      0.0000
    275 C4         2.7342     1.9881   754.7213 C.ar     238 DG      0.0000
    276 H5'        7.6353     6.2637   755.6467 H        238 DG      0.0000
    277 H5''       6.9060     5.7918   757.2098 H        238 DG      0.0000
    278 H4'        7.5244     3.7241   756.2507 H        238 DG      0.0000
    279 H3'        7.3197     5.0330   753.7514 H        238 DG      0.0000
    280 H2'        5.1567     4.4708   753.2469 H        238 DG      0.0000
    281 H2''       5.8859     2.8914   752.8177 H        238 DG      0.0000
    282 H1'        5.3665     1.9350   754.8864 H        238 DG      0.0000
    283 H8         3.2195     5.1648   754.4609 H        238 DG      0.0000
    284 H1        -0.0343    -0.3858   754.7477 H        238 DG      0.0000
    285 H21        1.4001    -2.0393   755.0044 H        238 DG      0.0000
    286 H22        3.1273    -1.7810   755.1052 H        238 DG      0.0000
    287 P          8.3784     1.8806   753.1151 P.3      237 DA      0.0000
    288 OP1        9.2272     0.8696   753.8965 O.co2    237 DA      0.0000
    289 OP2        9.0956     2.3371   751.9224 O.co2    237 DA      0.0000
    290 O5'        6.9154     1.1854   752.9403 O.3      237 DA      0.0000
    291 C5'        6.5778     0.3310   754.0968 C.3      237 DA      0.0000
    292 C4'        6.4484    -1.0764   753.5690 C.3      237 DA      0.0000
    293 O4'        5.1112    -1.4463   753.3467 O.3      237 DA      0.0000
    294 C3'        7.1541    -1.2772   752.2285 C.3      237 DA      0.0000
    295 O3'        7.8314    -2.5088   752.1533 O.3      237 DA      0.0000
    296 C2'        6.0372    -1.0238   751.2319 C.3      237 DA      0.0000
    297 C1'        4.7494    -1.3017   751.9558 C.3      237 DA      0.0000
    298 N9         3.7580    -0.2361   751.7303 N.ar     237 DA      0.0000
    299 C8         3.9644     1.1137   751.5439 C.ar     237 DA      0.0000
    300 N7         2.8667     1.8074   751.3480 N.ar     237 DA      0.0000
    301 C5         1.8650     0.8488   751.4349 C.ar     237 DA      0.0000
    302 C6         0.4583     0.9531   751.3292 C.ar     237 DA      0.0000
    303 N6        -0.1810     2.0898   751.1167 N.pl3    237 DA      0.0000
    304 N1        -0.2392    -0.2099   751.4529 N.ar     237 DA      0.0000
    305 C2         0.3948    -1.3987   751.6775 C.ar     237 DA      0.0000
    306 N3         1.7108    -1.5643   751.7933 N.ar     237 DA      0.0000
    307 C4         2.3932    -0.4017   751.6572 C.ar     237 DA      0.0000
    308 H5'        7.3690     0.3808   754.8449 H        237 DA      0.0000
    309 H5''       5.6323     0.6528   754.5335 H        237 DA      0.0000
    310 H4'        6.8825    -1.7620   754.2967 H        237 DA      0.0000
    311 H3'        7.8910    -0.4820   752.1154 H        237 DA      0.0000
    312 H2'        6.1388    -1.6897   750.3751 H        237 DA      0.0000
    313 H2''       6.0619     0.0146   750.9014 H        237 DA      0.0000
    314 H1'        4.3400    -2.2462   751.5976 H        237 DA      0.0000
    315 H8         4.9463     1.5632   751.5578 H        237 DA      0.0000
    316 H2        -0.2240    -2.2790   751.7687 H        237 DA      0.0000
    317 H61       -1.1314     2.2216   751.4322 H        237 DA      0.0000
    318 H62        0.2890     2.8400   750.6305 H        237 DA      0.0000
    319 P          7.9956    -3.5416   750.9687 P.3      236 DA      0.0000
    320 OP1        8.6113    -4.8734   751.4886 O.co2    236 DA      0.0000
    321 OP2        8.9658    -2.8893   750.0350 O.co2    236 DA      0.0000
    322 O5'        6.5500    -3.9150   750.4660 O.3      236 DA      0.0000
    323 C5'        5.9200    -5.1302   750.9219 C.3      236 DA      0.0000
    324 C4'        4.5828    -5.2246   750.2199 C.3      236 DA      0.0000
    325 O4'        3.9087    -4.0045   750.0992 O.3      236 DA      0.0000
    326 C3'        4.6738    -5.8124   748.8124 C.3      236 DA      0.0000
    327 O3'        4.0031    -7.0865   748.7810 O.3      236 DA      0.0000
    328 C2'        4.1489    -4.6919   747.9128 C.3      236 DA      0.0000
    329 C1'        3.2125    -3.9416   748.8106 C.3      236 DA      0.0000
    330 N9         3.0170    -2.5269   748.5110 N.ar     236 DA      0.0000
    331 C8         3.9584    -1.5374   748.3163 C.ar     236 DA      0.0000
    332 N7         3.4413    -0.3466   748.1108 N.ar     236 DA      0.0000
    333 C5         2.0776    -0.5530   748.1854 C.ar     236 DA      0.0000
    334 C6         0.9813     0.3284   748.0519 C.ar     236 DA      0.0000
    335 N6         1.1029     1.6298   747.8087 N.pl3    236 DA      0.0000
    336 N1        -0.2540    -0.2492   748.2007 N.ar     236 DA      0.0000
    337 C2        -0.4081    -1.5633   748.4533 C.ar     236 DA      0.0000
    338 N3         0.5785    -2.4540   748.5921 N.ar     236 DA      0.0000
    339 C4         1.7943    -1.8820   748.4449 C.ar     236 DA      0.0000
    340 H5'        6.5383    -5.9908   750.6667 H        236 DA      0.0000
    341 H5''       5.7702    -5.0880   752.0007 H        236 DA      0.0000
    342 H4'        3.9513    -5.8887   750.8101 H        236 DA      0.0000
    343 H3'        5.7257    -5.9745   748.5774 H        236 DA      0.0000
    344 H2'        4.9621    -4.0506   747.5730 H        236 DA      0.0000
    345 H2''       3.6099    -5.1075   747.0615 H        236 DA      0.0000
    346 H1'        2.2521    -4.4536   748.8717 H        236 DA      0.0000
    347 H8         5.0220    -1.7240   748.3313 H        236 DA      0.0000
    348 H2        -1.4191    -1.9298   748.5523 H        236 DA      0.0000
    349 H61        0.3218     2.1986   748.1027 H        236 DA      0.0000
    350 H62        1.9191     2.0222   747.3614 H        236 DA      0.0000
    351 P          3.9494    -7.9056   747.3960 P.3      235 DT      0.0000
    352 OP1        3.5371    -9.3443   747.4541 O.co2    235 DT      0.0000
    353 OP2        5.3311    -7.6551   746.8834 O.co2    235 DT      0.0000
    354 O5'        2.6809    -7.0844   746.6928 O.3      235 DT      0.0000
    355 C5'        1.6581    -6.8399   747.7052 C.3      235 DT      0.0000
    356 C4'        0.3465    -6.6180   747.0222 C.3      235 DT      0.0000
    357 O4'        0.0322    -5.2695   746.8418 O.3      235 DT      0.0000
    358 C3'        0.2327    -7.2866   745.6610 C.3      235 DT      0.0000
    359 O3'       -1.0778    -7.8009   745.3937 O.3      235 DT      0.0000
    360 C2'        0.6698    -6.1184   744.7676 C.3      235 DT      0.0000
    361 C1'       -0.0567    -4.9547   745.4076 C.3      235 DT      0.0000
    362 N1         0.6588    -3.6855   745.1777 N.am     235 DT      0.0000
    363 C2        -0.1018    -2.5360   745.0561 C.2      235 DT      0.0000
    364 O2        -1.3325    -2.5796   745.0928 O.2      235 DT      0.0000
    365 N3         0.5542    -1.3467   744.8886 N.am     235 DT      0.0000
    366 C4         1.9115    -1.2746   744.8401 C.2      235 DT      0.0000
    367 O4         2.4335    -0.1349   744.6546 O.2      235 DT      0.0000
    368 C5         2.6757    -2.4658   744.9885 C.2      235 DT      0.0000
    369 C7         4.1844    -2.4242   744.9364 C.3      235 DT      0.0000
    370 C6         2.0202    -3.6184   745.1615 C.2      235 DT      0.0000
    371 H5'        1.5848    -7.7027   748.3673 H        235 DT      0.0000
    372 H5''       1.9222    -5.9556   748.2852 H        235 DT      0.0000
    373 H4'       -0.4265    -7.0478   747.6593 H        235 DT      0.0000
    374 H3'        0.9623    -8.0931   745.5889 H        235 DT      0.0000
    375 H2'        1.7502    -5.9775   744.7982 H        235 DT      0.0000
    376 H2''       0.3296    -6.2685   743.7430 H        235 DT      0.0000
    377 H1'       -1.0927    -4.8967   745.0737 H        235 DT      0.0000
    378 H3         0.0147    -0.4976   744.7985 H        235 DT      0.0000
    379 H6         2.5889    -4.5272   745.2929 H        235 DT      0.0000
    380 H71        4.5209    -2.6780   743.9312 H        235 DT      0.0000
    381 H72        4.5922    -3.1422   745.6480 H        235 DT      0.0000
    382 H73        4.5293    -1.4225   745.1929 H        235 DT      0.0000
    383 P          9.3008    -3.7253   765.1154 P.3      241 DG      0.0000
    384 OP1       10.2501    -4.8655   765.1138 O.co2    241 DG      0.0000
    385 OP2        8.2311    -4.0407   766.1711 O.co2    241 DG      0.0000
    386 O5'        9.9233    -2.2719   765.2938 O.3      241 DG      0.0000
    387 C5'       10.1720    -1.2612   764.2938 C.3      241 DG      0.0000
    388 C4'        9.5952     0.0473   764.7926 C.3      241 DG      0.0000
    389 O4'        8.2605     0.2331   764.3734 O.3      241 DG      0.0000
    390 C3'        9.6205     0.3099   766.2848 C.3      241 DG      0.0000
    391 O3'       10.2688     1.5724   766.5968 O.3      241 DG      0.0000
    392 C2'        8.1642     0.2626   766.7066 C.3      241 DG      0.0000
    393 C1'        7.4191     0.6459   765.4510 C.3      241 DG      0.0000
    394 N9         6.1030    -0.0177   765.4219 N.ar     241 DG      0.0000
    395 C8         5.7857    -1.3358   765.6508 C.ar     241 DG      0.0000
    396 N7         4.5022    -1.6021   765.5611 N.ar     241 DG      0.0000
    397 C5         3.9303    -0.3727   765.2441 C.ar     241 DG      0.0000
    398 C6         2.5858     0.0126   765.0182 C.2      241 DG      0.0000
    399 O6         1.5768    -0.6928   765.0395 O.2      241 DG      0.0000
    400 N1         2.3994     1.3383   764.7367 N.am     241 DG      0.0000
    401 C2         3.3718     2.1908   764.6760 C.2      241 DG      0.0000
    402 N2         2.9301     3.3510   764.3792 N.pl3    241 DG      0.0000
    403 N3         4.7257     1.9092   764.8848 N.2      241 DG      0.0000
    404 C4         4.9005     0.6081   765.1573 C.ar     241 DG      0.0000
    405 H5'       11.2451    -1.1549   764.1350 H        241 DG      0.0000
    406 H5''       9.6884    -1.5430   763.3584 H        241 DG      0.0000
    407 H4'       10.1797     0.8413   764.3279 H        241 DG      0.0000
    408 H3'       10.1600    -0.4982   766.7787 H        241 DG      0.0000
    409 H2'        7.8862    -0.7393   767.0336 H        241 DG      0.0000
    410 H2''       7.9738     0.9874   767.4981 H        241 DG      0.0000
    411 H1'        7.2857     1.7272   765.4191 H        241 DG      0.0000
    412 H8         6.5265    -2.0864   765.8839 H        241 DG      0.0000
    413 H1         1.4594     1.6673   764.5683 H        241 DG      0.0000
    414 H21        1.9406     3.4929   764.2349 H        241 DG      0.0000
    415 H22        3.5700     4.1271   764.2888 H        241 DG      0.0000
    416 P         10.1922     2.2402   768.0253 P.3      242 DT      0.0000
    417 OP1       11.4616     2.8705   768.5370 O.co2    242 DT      0.0000
    418 OP2        9.9601     1.0268   768.9440 O.co2    242 DT      0.0000
    419 O5'        8.9355     3.1472   768.0539 O.3      242 DT      0.0000
    420 C5'        8.9958     4.5929   767.9099 C.3      242 DT      0.0000
    421 C4'        7.5508     5.0428   767.9674 C.3      242 DT      0.0000
    422 O4'        6.6534     3.9897   767.6922 O.3      242 DT      0.0000
    423 C3'        7.0782     5.6145   769.2801 C.3      242 DT      0.0000
    424 O3'        6.7549     7.0000   769.0919 O.3      242 DT      0.0000
    425 C2'        5.8468     4.7983   769.6724 C.3      242 DT      0.0000
    426 C1'        5.3815     4.3256   768.3196 C.3      242 DT      0.0000
    427 N1         4.6026     3.0910   768.4162 N.am     242 DT      0.0000
    428 C2         3.2514     3.1810   768.2183 C.2      242 DT      0.0000
    429 O2         2.6890     4.2474   767.9801 O.2      242 DT      0.0000
    430 N3         2.5307     2.0200   768.2994 N.am     242 DT      0.0000
    431 C4         3.0977     0.8193   768.5553 C.2      242 DT      0.0000
    432 O4         2.3068    -0.1590   768.6006 O.2      242 DT      0.0000
    433 C5         4.5136     0.7442   768.7550 C.2      242 DT      0.0000
    434 C7         5.1797    -0.5637   769.0349 C.3      242 DT      0.0000
    435 C6         5.2106     1.8847   768.6735 C.2      242 DT      0.0000
    436 H5'        9.5696     5.0370   768.7233 H        242 DT      0.0000
    437 H5''       9.4358     4.8585   766.9487 H        242 DT      0.0000
    438 H4'        7.4104     5.8068   767.2029 H        242 DT      0.0000
    439 H3'        7.8553     5.5095   770.0372 H        242 DT      0.0000
    440 H2'        6.1092     3.9626   770.3212 H        242 DT      0.0000
    441 H2''       5.0946     5.4324   770.1416 H        242 DT      0.0000
    442 H1'        4.8488     5.1047   767.7743 H        242 DT      0.0000
    443 H3         1.5310     2.0621   768.1619 H        242 DT      0.0000
    444 H6         6.2811     1.8564   768.8139 H        242 DT      0.0000
    445 H71        5.6671    -0.9249   768.1293 H        242 DT      0.0000
    446 H72        4.4337    -1.2889   769.3596 H        242 DT      0.0000
    447 H73        5.9241    -0.4316   769.8202 H        242 DT      0.0000
    448 P          7.1461     7.9245   770.3719 P.3      243 DG      0.0000
    449 OP1        7.5976     9.1916   769.6568 O.co2    243 DG      0.0000
    450 OP2        8.1972     7.2645   771.1254 O.co2    243 DG      0.0000
    451 O5'        5.6342     8.0075   770.9814 O.3      243 DG      0.0000
    452 C5'        4.6828     8.3055   769.8908 C.3      243 DG      0.0000
    453 C4'        3.2995     8.0467   770.4108 C.3      243 DG      0.0000
    454 O4'        2.7945     6.7506   770.2303 O.3      243 DG      0.0000
    455 C3'        3.1638     8.3705   771.9189 C.3      243 DG      0.0000
    456 O3'        2.0610     9.2957   772.0777 O.3      243 DG      0.0000
    457 C2'        3.0037     7.0140   772.5714 C.3      243 DG      0.0000
    458 C1'        2.2650     6.2343   771.4899 C.3      243 DG      0.0000
    459 N9         2.4415     4.7877   771.6594 N.ar     243 DG      0.0000
    460 C8         3.5734     4.0975   771.9956 C.ar     243 DG      0.0000
    461 N7         3.4158     2.7949   772.0814 N.ar     243 DG      0.0000
    462 C5         2.0737     2.6207   771.7513 C.ar     243 DG      0.0000
    463 C6         1.2835     1.4396   771.6570 C.2      243 DG      0.0000
    464 O6         1.6342     0.2658   771.8493 O.2      243 DG      0.0000
    465 N1        -0.0327     1.6612   771.3220 N.am     243 DG      0.0000
    466 C2        -0.5182     2.9135   771.0982 C.2      243 DG      0.0000
    467 N2        -1.8213     2.9392   770.7894 N.pl3    243 DG      0.0000
    468 N3         0.1791     4.0451   771.1692 N.2      243 DG      0.0000
    469 C4         1.4651     3.8308   771.4958 C.ar     243 DG      0.0000
    470 H5'        4.7774     9.3490   769.5903 H        243 DG      0.0000
    471 H5''       4.8837     7.6566   769.0384 H        243 DG      0.0000
    472 H4'        2.6301     8.7238   769.8803 H        243 DG      0.0000
    473 H3'        4.0826     8.8373   772.2736 H        243 DG      0.0000
    474 H2'        3.9711     6.5641   772.7944 H        243 DG      0.0000
    475 H2''       2.3970     7.0898   773.4738 H        243 DG      0.0000
    476 H1'        1.2024     6.4695   771.5488 H        243 DG      0.0000
    477 H8         4.5208     4.5834   772.1762 H        243 DG      0.0000
    478 H1        -0.6571     0.8716   771.2396 H        243 DG      0.0000
    479 H21       -2.3456     2.0774   770.7392 H        243 DG      0.0000
    480 H22       -2.2797     3.8205   770.6067 H        243 DG      0.0000
    481 P          1.7143     9.9248   773.4661 P.3      244 DA      0.0000
    482 OP1        2.4086    11.1995   773.8215 O.co2    244 DA      0.0000
    483 OP2        2.3264     8.7860   774.3619 O.co2    244 DA      0.0000
    484 O5'        0.1525     9.8085   773.7153 O.3      244 DA      0.0000
    485 C5'       -0.8384     9.6714   772.6862 C.3      244 DA      0.0000
    486 C4'       -1.7573     8.5572   773.1605 C.3      244 DA      0.0000
    487 O4'       -1.1040     7.3092   773.0702 O.3      244 DA      0.0000
    488 C3'       -2.2865     8.6790   774.5896 C.3      244 DA      0.0000
    489 O3'       -3.7079     8.4384   774.6419 O.3      244 DA      0.0000
    490 C2'       -1.4704     7.6090   775.3250 C.3      244 DA      0.0000
    491 C1'       -1.4516     6.5355   774.2474 C.3      244 DA      0.0000
    492 N9        -0.4533     5.4860   774.4758 N.ar     244 DA      0.0000
    493 C8         0.8919     5.5856   774.6916 C.ar     244 DA      0.0000
    494 N7         1.4922     4.4280   774.8566 N.ar     244 DA      0.0000
    495 C5         0.4706     3.5006   774.7164 C.ar     244 DA      0.0000
    496 C6         0.4747     2.0894   774.7643 C.ar     244 DA      0.0000
    497 N6         1.5609     1.3447   774.9841 N.pl3    244 DA      0.0000
    498 N1        -0.7414     1.4966   774.5745 N.ar     244 DA      0.0000
    499 C2        -1.8555     2.2329   774.3568 C.ar     244 DA      0.0000
    500 N3        -1.9350     3.5617   774.2985 N.ar     244 DA      0.0000
    501 C4        -0.7291     4.1284   774.4854 C.ar     244 DA      0.0000
    502 H5'       -0.3705     9.4030   771.7390 H        244 DA      0.0000
    503 H5''      -1.3989    10.6001   772.5784 H        244 DA      0.0000
    504 H4'       -2.6169     8.5298   772.4907 H        244 DA      0.0000
    505 H3'       -2.0583     9.6664   774.9910 H        244 DA      0.0000
    506 H2'       -0.4674     7.9581   775.5705 H        244 DA      0.0000
    507 H2''      -1.9931     7.2610   776.2159 H        244 DA      0.0000
    508 H1'       -2.4428     6.0967   774.1329 H        244 DA      0.0000
    509 H8         1.4148     6.5301   774.7237 H        244 DA      0.0000
    510 H2        -2.7765     1.6866   774.2154 H        244 DA      0.0000
    511 H61        2.5131     1.6671   774.8867 H        244 DA      0.0000
    512 H62        1.5033     0.3511   774.8126 H        244 DA      0.0000
    513 P         -4.6732     9.1192   775.7833 P.3      245 DA      0.0000
    514 OP1       -5.7004     9.9999   775.1163 O.co2    245 DA      0.0000
    515 OP2       -3.6770     9.8257   776.6142 O.co2    245 DA      0.0000
    516 O5'       -5.5119     7.8703   776.3142 O.3      245 DA      0.0000
    517 C5'       -6.3815     7.0959   775.4898 C.3      245 DA      0.0000
    518 C4'       -6.3811     5.6700   776.0121 C.3      245 DA      0.0000
    519 O4'       -5.0859     5.1400   776.0403 O.3      245 DA      0.0000
    520 C3'       -6.9955     5.4251   777.3794 C.3      245 DA      0.0000
    521 O3'       -8.1446     4.5818   777.3016 O.3      245 DA      0.0000
    522 C2'       -5.8320     4.8668   778.2082 C.3      245 DA      0.0000
    523 C1'       -4.9041     4.2840   777.2144 C.3      245 DA      0.0000
    524 N9        -3.4552     4.2401   777.4824 N.ar     245 DA      0.0000
    525 C8        -2.5466     5.2642   777.5976 C.ar     245 DA      0.0000
    526 N7        -1.3079     4.8663   777.7669 N.ar     245 DA      0.0000
    527 C5        -1.3975     3.4785   777.7299 C.ar     245 DA      0.0000
    528 C6        -0.4081     2.4615   777.8504 C.ar     245 DA      0.0000
    529 N6         0.8889     2.6674   778.0420 N.pl3    245 DA      0.0000
    530 N1        -0.8682     1.1721   777.7522 N.ar     245 DA      0.0000
    531 C2        -2.1961     0.9207   777.5631 C.ar     245 DA      0.0000
    532 N3        -3.1685     1.8190   777.4552 N.ar     245 DA      0.0000
    533 C4        -2.7015     3.0803   777.5471 C.ar     245 DA      0.0000
    534 H5'       -6.0252     7.1120   774.4598 H        245 DA      0.0000
    535 H5''      -7.3912     7.5038   775.5358 H        245 DA      0.0000
    536 H4'       -6.9503     5.0732   775.2994 H        245 DA      0.0000
    537 H3'       -7.2955     6.3837   777.8026 H        245 DA      0.0000
    538 H2'       -5.3430     5.6637   778.7684 H        245 DA      0.0000
    539 H2''      -6.1905     4.0937   778.8878 H        245 DA      0.0000
    540 H1'       -5.2437     3.2779   776.9683 H        245 DA      0.0000
    541 H8        -2.8276     6.3060   777.5528 H        245 DA      0.0000
    542 H2        -2.4867    -0.1172   777.4939 H        245 DA      0.0000
    543 H61        1.2518     3.5518   778.3682 H        245 DA      0.0000
    544 H62        1.5353     1.9141   777.8552 H        245 DA      0.0000
    545 P         -9.4561     4.6808   778.2578 P.3      246 DT      0.0000
    546 OP1      -10.7440     4.5077   777.4605 O.co2    246 DT      0.0000
    547 OP2       -9.4022     5.8725   779.0784 O.co2    246 DT      0.0000
    548 O5'       -9.3788     3.2536   779.0715 O.3      246 DT      0.0000
    549 C5'       -8.9634     2.1771   778.1264 C.3      246 DT      0.0000
    550 C4'       -7.9812     1.3477   778.9142 C.3      246 DT      0.0000
    551 O4'       -6.7343     1.9772   779.1061 O.3      246 DT      0.0000
    552 C3'       -8.4936     1.0284   780.3307 C.3      246 DT      0.0000
    553 O3'       -9.0637    -0.2674   780.3324 O.3      246 DT      0.0000
    554 C2'       -7.2694     1.1922   781.2280 C.3      246 DT      0.0000
    555 C1'       -6.1522     1.2328   780.2634 C.3      246 DT      0.0000
    556 N1        -4.9054     1.8998   780.6031 N.am     246 DT      0.0000
    557 C2        -3.7792     1.0945   780.7411 C.2      246 DT      0.0000
    558 O2        -3.8862    -0.1219   780.6530 O.2      246 DT      0.0000
    559 N3        -2.5840     1.6967   780.9951 N.am     246 DT      0.0000
    560 C4        -2.4509     3.0504   781.1152 C.2      246 DT      0.0000
    561 O4        -1.3027     3.5358   781.3704 O.2      246 DT      0.0000
    562 C5        -3.6208     3.8614   780.9436 C.2      246 DT      0.0000
    563 C7        -3.5249     5.3594   781.0311 C.3      246 DT      0.0000
    564 C6        -4.7967     3.2625   780.6879 C.2      246 DT      0.0000
    565 H5'       -9.8213     1.5761   777.8248 H        246 DT      0.0000
    566 H5''      -8.4775     2.6088   777.2514 H        246 DT      0.0000
    567 H4'       -7.8177     0.4089   778.3850 H        246 DT      0.0000
    568 H3'       -9.2516     1.7583   780.6151 H        246 DT      0.0000
    569 H2'       -7.3253     2.1174   781.8014 H        246 DT      0.0000
    570 H2''      -7.1672     0.3357   781.8944 H        246 DT      0.0000
    571 H1'       -5.9279     0.2145   779.9460 H        246 DT      0.0000
    572 H3        -1.7626     1.1182   781.0988 H        246 DT      0.0000
    573 H6        -5.6777     3.8710   780.5457 H        246 DT      0.0000
    574 H71       -2.4952     5.6462   781.2442 H        246 DT      0.0000
    575 H72       -3.8357     5.7990   780.0834 H        246 DT      0.0000
    576 H73       -4.1748     5.7191   781.8289 H        246 DT      0.0000
    577 P         -9.8975    -0.9672   781.4390 P.3      247 DT      0.0000
    578 OP1      -10.7701    -2.0934   780.8270 O.co2    247 DT      0.0000
    579 OP2      -10.7267     0.0924   782.0690 O.co2    247 DT      0.0000
    580 O5'       -8.8137    -1.7539   782.3214 O.3      247 DT      0.0000
    581 C5'       -8.2314    -2.8786   781.6096 C.3      247 DT      0.0000
    582 C4'       -6.9623    -3.2663   782.2857 C.3      247 DT      0.0000
    583 O4'       -5.9659    -2.2517   782.2624 O.3      247 DT      0.0000
    584 C3'       -7.1287    -3.6893   783.7524 C.3      247 DT      0.0000
    585 O3'       -6.3623    -4.8491   784.0164 O.3      247 DT      0.0000
    586 C2'       -6.5128    -2.4759   784.4887 C.3      247 DT      0.0000
    587 C1'       -5.3118    -2.2840   783.5852 C.3      247 DT      0.0000
    588 N1        -4.6275    -1.0394   783.8829 N.am     247 DT      0.0000
    589 C2        -3.2431    -1.0430   783.9377 C.2      247 DT      0.0000
    590 O2        -2.6418    -2.1015   783.7492 O.2      247 DT      0.0000
    591 N3        -2.6038     0.1350   784.2036 N.am     247 DT      0.0000
    592 C4        -3.2810     1.2975   784.4106 C.2      247 DT      0.0000
    593 O4        -2.6208     2.3523   784.6339 O.2      247 DT      0.0000
    594 C5        -4.7048     1.2903   784.3455 C.2      247 DT      0.0000
    595 C7        -5.5220     2.5316   784.5554 C.3      247 DT      0.0000
    596 C6        -5.3166     0.1245   784.0844 C.2      247 DT      0.0000
    597 H5'       -8.9251    -3.7193   781.6220 H        247 DT      0.0000
    598 H5''      -8.0236    -2.5912   780.5789 H        247 DT      0.0000
    599 H4'       -6.5602    -4.1244   781.7473 H        247 DT      0.0000
    600 H3'       -8.1772    -3.8305   784.0148 H        247 DT      0.0000
    601 H2'       -7.1750    -1.6102   784.4875 H        247 DT      0.0000
    602 H2''      -6.2083    -2.7400   785.5014 H        247 DT      0.0000
    603 H1'       -4.6293    -3.1305   783.6608 H        247 DT      0.0000
    604 H3        -1.5948     0.1435   784.2480 H        247 DT      0.0000
    605 H6        -6.3951     0.1049   784.0313 H        247 DT      0.0000
    606 H71       -4.8595     3.3740   784.7544 H        247 DT      0.0000
    607 H72       -6.1095     2.7352   783.6602 H        247 DT      0.0000
    608 H73       -6.1909     2.3872   785.4038 H        247 DT      0.0000
    609 P         -6.6289    -6.2711   784.6244 P.3      248 DC      0.0000
    610 OP1       -6.5833    -7.3471   783.5564 O.co2    248 DC      0.0000
    611 OP2       -7.9011    -6.1488   785.3593 O.co2    248 DC      0.0000
    612 O5'       -5.2268    -6.3811   785.4504 O.3      248 DC      0.0000
    613 C5'       -4.2015    -6.1003   784.4281 C.3      248 DC      0.0000
    614 C4'       -2.8705    -6.1105   785.1246 C.3      248 DC      0.0000
    615 O4'       -2.3839    -4.8278   785.3715 O.3      248 DC      0.0000
    616 C3'       -2.8221    -6.9192   786.4161 C.3      248 DC      0.0000
    617 O3'       -1.8111    -7.9153   786.3364 O.3      248 DC      0.0000
    618 C2'       -2.6704    -5.8153   787.4649 C.3      248 DC      0.0000
    619 C1'       -1.9471    -4.7315   786.7684 C.3      248 DC      0.0000
    620 N1        -2.3265    -3.3546   787.1006 N.am     248 DC      0.0000
    621 C2        -1.2740    -2.4784   787.3564 C.2      248 DC      0.0000
    622 O2        -0.1016    -2.8660   787.3608 O.2      248 DC      0.0000
    623 N3        -1.5917    -1.1710   787.6302 N.2      248 DC      0.0000
    624 C4        -2.8841    -0.7351   787.6203 C.2      248 DC      0.0000
    625 N4        -3.0895     0.5479   787.8971 N.pl3    248 DC      0.0000
    626 C5        -3.9396    -1.6313   787.3423 C.2      248 DC      0.0000
    627 C6        -3.6113    -2.9126   787.0775 C.2      248 DC      0.0000
    628 H5'       -4.2246    -6.8678   783.6545 H        248 DC      0.0000
    629 H5''      -4.3796    -5.1210   783.9839 H        248 DC      0.0000
    630 H4'       -2.1664    -6.5815   784.4387 H        248 DC      0.0000
    631 H3'       -3.7855    -7.4086   786.5594 H        248 DC      0.0000
    632 H2'       -3.6473    -5.4697   787.8028 H        248 DC      0.0000
    633 H2''      -2.0850    -6.1765   788.3104 H        248 DC      0.0000
    634 H1'       -0.8688    -4.8684   786.8494 H        248 DC      0.0000
    635 H5        -4.9687    -1.3039   787.3417 H        248 DC      0.0000
    636 H6        -4.3982    -3.6126   786.8384 H        248 DC      0.0000
    637 H41       -2.3060     1.1533   788.0963 H        248 DC      0.0000
    638 H42       -4.0293     0.9178   787.9084 H        248 DC      0.0000
    639 P         -1.6718    -9.2220   787.2885 P.3      249 DA      0.0000
    640 OP1       -0.9159   -10.2702   786.4947 O.co2    249 DA      0.0000
    641 OP2       -3.0343    -9.6762   787.6340 O.co2    249 DA      0.0000
    642 O5'       -0.8171    -8.6786   788.5855 O.3      249 DA      0.0000
    643 C5'        0.4397    -7.9956   788.2902 C.3      249 DA      0.0000
    644 C4'        1.0559    -7.4710   789.5455 C.3      249 DA      0.0000
    645 O4'        0.8467    -6.0765   789.7877 O.3      249 DA      0.0000
    646 C3'        0.5485    -8.1065   790.8508 C.3      249 DA      0.0000
    647 O3'        1.5084    -7.8596   791.8807 O.3      249 DA      0.0000
    648 C2'       -0.7197    -7.2564   791.0654 C.3      249 DA      0.0000
    649 C1'       -0.0479    -5.8914   790.8821 C.3      249 DA      0.0000
    650 N9        -1.0707    -4.8635   790.7878 N.ar     249 DA      0.0000
    651 C8        -2.4293    -4.9669   790.6719 C.ar     249 DA      0.0000
    652 N7        -3.0769    -3.8157   790.6533 N.ar     249 DA      0.0000
    653 C5        -2.0590    -2.8786   790.7609 C.ar     249 DA      0.0000
    654 C6        -2.0725    -1.4624   790.7954 C.ar     249 DA      0.0000
    655 N6        -3.1627    -0.7214   790.7101 N.pl3    249 DA      0.0000
    656 N1        -0.8580    -0.8524   790.9280 N.ar     249 DA      0.0000
    657 C2         0.2982    -1.5820   791.0081 C.ar     249 DA      0.0000
    658 N3         0.3915    -2.9094   790.9783 N.ar     249 DA      0.0000
    659 C4        -0.8234    -3.4981   790.8553 C.ar     249 DA      0.0000
    660 H5'        1.1275    -8.6977   787.8191 H        249 DA      0.0000
    661 H5''       0.2480    -7.1666   787.6090 H        249 DA      0.0000
    662 H4'        2.1308    -7.6420   789.4866 H        249 DA      0.0000
    663 H3'        0.3240    -9.1670   790.7371 H        249 DA      0.0000
    664 H2'       -1.4858    -7.4503   790.3146 H        249 DA      0.0000
    665 H2''      -1.1126    -7.3748   792.0752 H        249 DA      0.0000
    666 H1'        0.5486    -5.6896   791.7717 H        249 DA      0.0000
    667 H8        -2.9350    -5.9185   790.6009 H        249 DA      0.0000
    668 H2         1.2206    -1.0285   791.1046 H        249 DA      0.0000
    669 H61       -3.3683     0.2509   790.8902 H        249 DA      0.0000
    670 H62       -3.9687    -1.2423   790.3954 H        249 DA      0.0000
    671 P          2.8291    -8.7520   792.0212 P.3      250 DC      0.0000
    672 OP1        3.1701    -9.4967   790.7760 O.co2    250 DC      0.0000
    673 OP2        2.4782    -9.6602   793.1640 O.co2    250 DC      0.0000
    674 O5'        3.9640    -7.6813   792.3043 O.3      250 DC      0.0000
    675 C5'        4.5902    -6.9360   791.2166 C.3      250 DC      0.0000
    676 C4'        4.9775    -5.6311   791.9216 C.3      250 DC      0.0000
    677 O4'        3.7835    -4.9516   792.2335 O.3      250 DC      0.0000
    678 C3'        5.7329    -5.8398   793.2315 C.3      250 DC      0.0000
    679 O3'        6.9618    -5.0816   793.2994 O.3      250 DC      0.0000
    680 C2'        4.7160    -5.4466   794.3137 C.3      250 DC      0.0000
    681 C1'        3.9143    -4.4096   793.6375 C.3      250 DC      0.0000
    682 N1         2.5164    -4.1757   793.9903 N.am     250 DC      0.0000
    683 C2         2.1141    -2.8417   793.9634 C.2      250 DC      0.0000
    684 O2         2.8933    -1.9199   793.7565 O.2      250 DC      0.0000
    685 N3         0.8039    -2.5789   794.2165 N.2      250 DC      0.0000
    686 C4        -0.1029    -3.5584   794.4499 C.2      250 DC      0.0000
    687 N4        -1.3574    -3.1760   794.6808 N.pl3    250 DC      0.0000
    688 C5         0.3172    -4.9170   794.4565 C.2      250 DC      0.0000
    689 C6         1.6116    -5.1686   794.2070 C.2      250 DC      0.0000
    690 H5'        5.4676    -7.4557   790.8318 H        250 DC      0.0000
    691 H5''       3.8739    -6.7448   790.4176 H        250 DC      0.0000
    692 H4'        5.5786    -5.0193   791.2489 H        250 DC      0.0000
    693 H3'        5.9671    -6.8990   793.3373 H        250 DC      0.0000
    694 H2'        4.0979    -6.2973   794.6007 H        250 DC      0.0000
    695 H2''       5.2241    -5.0312   795.1839 H        250 DC      0.0000
    696 H1'        4.4593    -3.4657   793.6242 H        250 DC      0.0000
    697 H5        -0.3802    -5.7173   794.6550 H        250 DC      0.0000
    698 H6         1.9468    -6.1948   794.1773 H        250 DC      0.0000
    699 H41       -1.5963    -2.1947   794.6698 H        250 DC      0.0000
    700 H42       -2.0699    -3.8673   794.8670 H        250 DC      0.0000
    701 P         -5.9690     6.0347   796.2589 P.3      250 DG      0.0000
    702 OP1       -7.0598     7.0423   796.4376 O.co2    250 DG      0.0000
    703 OP2       -6.2751     5.0105   795.1741 O.co2    250 DG      0.0000
    704 O5'       -4.5344     6.8145   796.0516 O.3      250 DG      0.0000
    705 C5'       -3.5601     6.8208   797.1474 C.3      250 DG      0.0000
    706 C4'       -2.1773     6.6903   796.5131 C.3      250 DG      0.0000
    707 O4'       -1.7675     5.3535   796.4173 O.3      250 DG      0.0000
    708 C3'       -2.0698     7.2739   795.1068 C.3      250 DG      0.0000
    709 O3'       -0.8269     7.9637   794.8398 O.3      250 DG      0.0000
    710 C2'       -2.2338     6.0375   794.2045 C.3      250 DG      0.0000
    711 C1'       -1.5087     4.9863   795.0283 C.3      250 DG      0.0000
    712 N9        -2.0391     3.6397   794.7550 N.ar     250 DG      0.0000
    713 C8        -3.3522     3.2643   794.5984 C.ar     250 DG      0.0000
    714 N7        -3.5167     1.9867   794.3799 N.ar     250 DG      0.0000
    715 C5        -2.2231     1.4791   794.4047 C.ar     250 DG      0.0000
    716 C6        -1.7320     0.1554   794.2483 C.2      250 DG      0.0000
    717 O6        -2.4062    -0.8656   794.0515 O.2      250 DG      0.0000
    718 N1        -0.3661     0.0455   794.3352 N.am     250 DG      0.0000
    719 C2         0.4416     1.1116   794.5559 C.2      250 DG      0.0000
    720 N2         1.7446     0.8517   794.6192 N.pl3    250 DG      0.0000
    721 N3         0.0313     2.3760   794.7136 N.2      250 DG      0.0000
    722 C4        -1.3091     2.4832   794.6303 C.ar     250 DG      0.0000
    723 H5'       -3.6298     7.7546   797.7052 H        250 DG      0.0000
    724 H5''      -3.7443     5.9770   797.8123 H        250 DG      0.0000
    725 H4'       -1.4650     7.2151   797.1498 H        250 DG      0.0000
    726 H3'       -2.9028     7.9559   794.9363 H        250 DG      0.0000
    727 H2'       -3.2836     5.7815   794.0618 H        250 DG      0.0000
    728 H2''      -1.7378     6.1887   793.2457 H        250 DG      0.0000
    729 H1'       -0.4387     5.0187   794.8231 H        250 DG      0.0000
    730 H8        -4.1742     3.9628   794.6511 H        250 DG      0.0000
    731 H1         0.0540    -0.8670   794.2304 H        250 DG      0.0000
    732 H21        2.0769    -0.0951   794.5041 H        250 DG      0.0000
    733 H22        2.4017     1.6012   794.7824 H        250 DG      0.0000
    734 P         -0.3308     7.9343   793.3163 P.3      249 DT      0.0000
    735 OP1        0.4993     9.1273   792.9254 O.co2    249 DT      0.0000
    736 OP2       -1.6386     7.9367   792.6158 O.co2    249 DT      0.0000
    737 O5'        0.5372     6.5938   793.1854 O.3      249 DT      0.0000
    738 C5'        1.9715     6.7085   793.4531 C.3      249 DT      0.0000
    739 C4'        2.6884     5.6118   792.6960 C.3      249 DT      0.0000
    740 O4'        1.9636     4.3952   792.6687 O.3      249 DT      0.0000
    741 C3'        2.9542     5.9671   791.2413 C.3      249 DT      0.0000
    742 O3'        4.2294     5.5041   790.7462 O.3      249 DT      0.0000
    743 C2'        1.7978     5.3126   790.5184 C.3      249 DT      0.0000
    744 C1'        1.7251     4.0092   791.2965 C.3      249 DT      0.0000
    745 N1         0.3524     3.5015   791.1452 N.am     249 DT      0.0000
    746 C2         0.1914     2.1239   791.2520 C.2      249 DT      0.0000
    747 O2         1.1612     1.3976   791.4418 O.2      249 DT      0.0000
    748 N3        -1.0785     1.6327   791.1318 N.am     249 DT      0.0000
    749 C4        -2.1490     2.4474   790.9143 C.2      249 DT      0.0000
    750 O4        -3.2954     1.8970   790.8167 O.2      249 DT      0.0000
    751 C5        -1.9527     3.8540   790.8079 C.2      249 DT      0.0000
    752 C7        -3.1266     4.7623   790.5789 C.3      249 DT      0.0000
    753 C6        -0.7102     4.3282   790.9297 C.2      249 DT      0.0000
    754 H5'        2.3314     7.6817   793.1193 H        249 DT      0.0000
    755 H5''       2.1551     6.5966   794.5217 H        249 DT      0.0000
    756 H4'        3.6458     5.4288   793.1840 H        249 DT      0.0000
    757 H3'        2.8908     7.0481   791.1173 H        249 DT      0.0000
    758 H2'        0.8798     5.8930   790.6100 H        249 DT      0.0000
    759 H2''       2.0431     5.1306   789.4720 H        249 DT      0.0000
    760 H1'        2.4633     3.2880   790.9459 H        249 DT      0.0000
    761 H3        -1.2279     0.6366   791.2065 H        249 DT      0.0000
    762 H6        -0.5430     5.3925   790.8555 H        249 DT      0.0000
    763 H71       -4.0381     4.1686   790.5102 H        249 DT      0.0000
    764 H72       -3.2112     5.4627   791.4098 H        249 DT      0.0000
    765 H73       -2.9825     5.3155   789.6508 H        249 DT      0.0000
    766 P          4.9448     6.7836   789.9678 P.3      248 DG      0.0000
    767 OP1        5.8740     7.5643   790.8390 O.co2    248 DG      0.0000
    768 OP2        3.7148     7.5086   789.5623 O.co2    248 DG      0.0000
    769 O5'        5.8307     6.0078   788.8870 O.3      248 DG      0.0000
    770 C5'        7.0780     5.4015   789.3105 C.3      248 DG      0.0000
    771 C4'        6.9765     3.9488   788.8627 C.3      248 DG      0.0000
    772 O4'        5.6788     3.4579   789.1334 O.3      248 DG      0.0000
    773 C3'        7.2493     3.7270   787.3750 C.3      248 DG      0.0000
    774 O3'        8.2904     2.7896   787.1665 O.3      248 DG      0.0000
    775 C2'        5.8983     3.3430   786.7983 C.3      248 DG      0.0000
    776 C1'        5.1909     2.7312   787.9844 C.3      248 DG      0.0000
    777 N9         3.7382     2.8786   787.8609 N.ar     248 DG      0.0000
    778 C8         3.0125     4.0251   787.7020 C.ar     248 DG      0.0000
    779 N7         1.7195     3.8245   787.6239 N.ar     248 DG      0.0000
    780 C5         1.5822     2.4463   787.7615 C.ar     248 DG      0.0000
    781 C6         0.4387     1.6047   787.7709 C.2      248 DG      0.0000
    782 O6        -0.7348     1.9485   787.6719 O.2      248 DG      0.0000
    783 N1         0.7130     0.2749   787.9199 N.am     248 DG      0.0000
    784 C2         1.9971    -0.1954   788.0528 C.2      248 DG      0.0000
    785 N2         2.1225    -1.5159   788.1884 N.pl3    248 DG      0.0000
    786 N3         3.1135     0.5400   788.0571 N.2      248 DG      0.0000
    787 C4         2.8259     1.8553   787.9064 C.ar     248 DG      0.0000
    788 H5'        7.9254     5.8923   788.8317 H        248 DG      0.0000
    789 H5''       7.1745     5.4558   790.3948 H        248 DG      0.0000
    790 H4'        7.6935     3.3609   789.4357 H        248 DG      0.0000
    791 H3'        7.5515     4.6780   786.9364 H        248 DG      0.0000
    792 H2'        5.3642     4.2196   786.4319 H        248 DG      0.0000
    793 H2''       6.0171     2.6073   786.0027 H        248 DG      0.0000
    794 H1'        5.4527     1.6767   788.0715 H        248 DG      0.0000
    795 H8         3.4622     5.0054   787.6459 H        248 DG      0.0000
    796 H1        -0.0526    -0.3837   787.9328 H        248 DG      0.0000
    797 H21        1.3012    -2.1037   788.1894 H        248 DG      0.0000
    798 H22        3.0388    -1.9282   788.2902 H        248 DG      0.0000
    799 P          8.4586     1.4787   786.3002 P.3      247 DA      0.0000
    800 OP1        9.2581     0.4284   787.0815 O.co2    247 DA      0.0000
    801 OP2        9.1967     1.9005   785.1075 O.co2    247 DA      0.0000
    802 O5'        6.9641     0.8541   786.1254 O.3      247 DA      0.0000
    803 C5'        6.5861     0.0168   787.2818 C.3      247 DA      0.0000
    804 C4'        6.3897    -1.3828   786.7540 C.3      247 DA      0.0000
    805 O4'        5.0364    -1.6885   786.5318 O.3      247 DA      0.0000
    806 C3'        7.0850    -1.6171   785.4135 C.3      247 DA      0.0000
    807 O3'        7.7028    -2.8796   785.3383 O.3      247 DA      0.0000
    808 C2'        5.9815    -1.3107   784.4170 C.3      247 DA      0.0000
    809 C1'        4.6819    -1.5268   785.1408 C.3      247 DA      0.0000
    810 N9         3.7424    -0.4151   784.9153 N.ar     247 DA      0.0000
    811 C8         4.0130     0.9233   784.7289 C.ar     247 DA      0.0000
    812 N7         2.9497     1.6686   784.5330 N.ar     247 DA      0.0000
    813 C5         1.9034     0.7588   784.6199 C.ar     247 DA      0.0000
    814 C6         0.5033     0.9301   784.5143 C.ar     247 DA      0.0000
    815 N6        -0.0810     2.0960   784.3018 N.pl3    247 DA      0.0000
    816 N1        -0.2489    -0.1982   784.6380 N.ar     247 DA      0.0000
    817 C2         0.3276    -1.4159   784.8625 C.ar     247 DA      0.0000
    818 N3         1.6342    -1.6441   784.9784 N.ar     247 DA      0.0000
    819 C4         2.3713    -0.5154   784.8423 C.ar     247 DA      0.0000
    820 H5'        7.3788     0.0288   788.0299 H        247 DA      0.0000
    821 H5''       5.6571     0.3833   787.7185 H        247 DA      0.0000
    822 H4'        6.7906    -2.0884   787.4817 H        247 DA      0.0000
    823 H3'        7.8590    -0.8580   785.3004 H        247 DA      0.0000
    824 H2'        6.0512    -1.9807   783.5601 H        247 DA      0.0000
    825 H2''       6.0557    -0.2746   784.0864 H        247 DA      0.0000
    826 H1'        4.2279    -2.4507   784.7826 H        247 DA      0.0000
    827 H8         5.0153     1.3255   784.7428 H        247 DA      0.0000
    828 H2        -0.3325    -2.2658   784.9538 H        247 DA      0.0000
    829 H61       -1.0241     2.2730   784.6172 H        247 DA      0.0000
    830 H62        0.4242     2.8230   783.8156 H        247 DA      0.0000
    831 P          7.8175    -3.9190   784.1537 P.3      246 DA      0.0000
    832 OP1        8.3690    -5.2787   784.6737 O.co2    246 DA      0.0000
    833 OP2        8.8178    -3.3138   783.2201 O.co2    246 DA      0.0000
    834 O5'        6.3557    -4.2231   783.6511 O.3      246 DA      0.0000
    835 C5'        5.6685    -5.4068   784.1069 C.3      246 DA      0.0000
    836 C4'        4.3283    -5.4373   783.4050 C.3      246 DA      0.0000
    837 O4'        3.7132    -4.1865   783.2842 O.3      246 DA      0.0000
    838 C3'        4.3912    -6.0288   781.9974 C.3      246 DA      0.0000
    839 O3'        3.6605    -7.2694   781.9660 O.3      246 DA      0.0000
    840 C2'        3.9204    -4.8845   781.0979 C.3      246 DA      0.0000
    841 C1'        3.0208    -4.0904   781.9957 C.3      246 DA      0.0000
    842 N9         2.8930    -2.6680   781.6961 N.ar     246 DA      0.0000
    843 C8         3.8805    -1.7245   781.5013 C.ar     246 DA      0.0000
    844 N7         3.4208    -0.5104   781.2959 N.ar     246 DA      0.0000
    845 C5         2.0488    -0.6515   781.3704 C.ar     246 DA      0.0000
    846 C6         0.9959     0.2812   781.2369 C.ar     246 DA      0.0000
    847 N6         1.1794     1.5753   780.9937 N.pl3    246 DA      0.0000
    848 N1        -0.2656    -0.2368   781.3858 N.ar     246 DA      0.0000
    849 C2        -0.4822    -1.5420   781.6383 C.ar     246 DA      0.0000
    850 N3         0.4608    -2.4788   781.7772 N.ar     246 DA      0.0000
    851 C4         1.7025    -1.9655   781.6299 C.ar     246 DA      0.0000
    852 H5'        6.2450    -6.2959   783.8518 H        246 DA      0.0000
    853 H5''       5.5209    -5.3575   785.1857 H        246 DA      0.0000
    854 H4'        3.6659    -6.0705   783.9951 H        246 DA      0.0000
    855 H3'        5.4341    -6.2408   781.7624 H        246 DA      0.0000
    856 H2'        4.7632    -4.2827   780.7580 H        246 DA      0.0000
    857 H2''       3.3621    -5.2739   780.2466 H        246 DA      0.0000
    858 H1'        2.0371    -4.5560   782.0568 H        246 DA      0.0000
    859 H8         4.9341    -1.9616   781.5163 H        246 DA      0.0000
    860 H2        -1.5096    -1.8599   781.7374 H        246 DA      0.0000
    861 H61        0.4263     2.1807   781.2878 H        246 DA      0.0000
    862 H62        2.0133     1.9283   780.5465 H        246 DA      0.0000
    863 P          3.5677    -8.0850   780.5810 P.3      245 DT      0.0000
    864 OP1        3.0873    -9.5024   780.6392 O.co2    245 DT      0.0000
    865 OP2        4.9598    -7.9007   780.0684 O.co2    245 DT      0.0000
    866 O5'        2.3399    -7.2042   779.8779 O.3      245 DT      0.0000
    867 C5'        1.3299    -6.9112   780.8902 C.3      245 DT      0.0000
    868 C4'        0.0304    -6.6270   780.2073 C.3      245 DT      0.0000
    869 O4'       -0.2192    -5.2650   780.0268 O.3      245 DT      0.0000
    870 C3'       -0.1153    -7.2894   778.8460 C.3      245 DT      0.0000
    871 O3'       -1.4487    -7.7406   778.5787 O.3      245 DT      0.0000
    872 C2'        0.3771    -6.1434   777.9527 C.3      245 DT      0.0000
    873 C1'       -0.2930    -4.9464   778.5927 C.3      245 DT      0.0000
    874 N1         0.4823    -3.7128   778.3627 N.am     245 DT      0.0000
    875 C2        -0.2227    -2.5282   778.2411 C.2      245 DT      0.0000
    876 O2        -1.4541    -2.5131   778.2779 O.2      245 DT      0.0000
    877 N3         0.4894    -1.3716   778.0737 N.am     245 DT      0.0000
    878 C4         1.8485    -1.3644   778.0252 C.2      245 DT      0.0000
    879 O4         2.4243    -0.2508   777.8397 O.2      245 DT      0.0000
    880 C5         2.5550    -2.5907   778.1736 C.2      245 DT      0.0000
    881 C7         4.0640    -2.6211   778.1215 C.3      245 DT      0.0000
    882 C6         1.8453    -3.7107   778.3465 C.2      245 DT      0.0000
    883 H5'        1.2155    -7.7696   781.5523 H        245 DT      0.0000
    884 H5''       1.6359    -6.0406   781.4702 H        245 DT      0.0000
    885 H4'       -0.7623    -7.0194   780.8443 H        245 DT      0.0000
    886 H3'        0.5751    -8.1298   778.7740 H        245 DT      0.0000
    887 H2'        1.4630    -6.0541   777.9832 H        245 DT      0.0000
    888 H2''       0.0302    -6.2771   776.9281 H        245 DT      0.0000
    889 H1'       -1.3251    -4.8390   778.2587 H        245 DT      0.0000
    890 H3        -0.0091    -0.4978   777.9835 H        245 DT      0.0000
    891 H6         2.3699    -4.6456   778.4779 H        245 DT      0.0000
    892 H71        4.3879    -2.8907   777.1163 H        245 DT      0.0000
    893 H72        4.4371    -3.3577   778.8330 H        245 DT      0.0000
    894 H73        4.4563    -1.6370   778.3780 H        245 DT      0.0000
    895 P         -1.6981    -8.3670   777.0888 P.3      244 DT      0.0000
    896 OP1       -2.0190    -9.8554   777.2368 O.co2    244 DT      0.0000
    897 OP2       -0.3642    -8.2017   776.4190 O.co2    244 DT      0.0000
    898 O5'       -2.8622    -7.5780   776.4367 O.3      244 DT      0.0000
    899 C5'       -3.9196    -6.9819   777.1881 C.3      244 DT      0.0000
    900 C4'       -4.4080    -5.7830   776.4402 C.3      244 DT      0.0000
    901 O4'       -3.5846    -4.6496   776.3832 O.3      244 DT      0.0000
    902 C3'       -4.8471    -5.9882   774.9741 C.3      244 DT      0.0000
    903 O3'       -5.9279    -5.0563   774.8703 O.3      244 DT      0.0000
    904 C2'       -3.6031    -5.5151   774.2103 C.3      244 DT      0.0000
    905 C1'       -3.3849    -4.2322   774.9861 C.3      244 DT      0.0000
    906 N1        -2.0484    -3.6400   774.8799 N.am     244 DT      0.0000
    907 C2        -2.0105    -2.2392   774.8793 C.2      244 DT      0.0000
    908 O2        -3.0479    -1.5746   774.9223 O.2      244 DT      0.0000
    909 N3        -0.7794    -1.6514   774.8258 N.am     244 DT      0.0000
    910 C4         0.3787    -2.3681   774.7661 C.2      244 DT      0.0000
    911 O4         1.4719    -1.7292   774.7037 O.2      244 DT      0.0000
    912 C5         0.3113    -3.7881   774.7743 C.2      244 DT      0.0000
    913 C7         1.5902    -4.5970   774.7129 C.3      244 DT      0.0000
    914 C6        -0.8950    -4.3588   774.8408 C.2      244 DT      0.0000
    915 H5'       -4.7334    -7.6967   777.3104 H        244 DT      0.0000
    916 H5''      -3.5482    -6.6778   778.1667 H        244 DT      0.0000
    917 H4'       -5.3058    -5.4606   776.9674 H        244 DT      0.0000
    918 H3'       -5.1339    -7.0146   774.7454 H        244 DT      0.0000
    919 H2'       -3.8061    -5.3343   773.1548 H        244 DT      0.0000
    920 H2''      -2.7699    -6.2054   774.3420 H        244 DT      0.0000
    921 H1'       -4.1397    -3.4970   774.7071 H        244 DT      0.0000
    922 H3        -0.7243    -0.6429   774.8307 H        244 DT      0.0000
    923 H6        -0.9565    -5.4368   774.8645 H        244 DT      0.0000
    924 H71        2.4452    -3.9228   774.6641 H        244 DT      0.0000
    925 H72        1.5766    -5.2309   773.8263 H        244 DT      0.0000
    926 H73        1.6692    -5.2200   775.6039 H        244 DT      0.0000
    927 P         -6.9710    -4.9643   773.7241 P.3      243 DC      0.0000
    928 OP1       -8.3724    -4.8902   774.3333 O.co2    243 DC      0.0000
    929 OP2       -6.8292    -6.2324   772.9423 O.co2    243 DC      0.0000
    930 O5'       -6.5046    -3.5895   772.9847 O.3      243 DC      0.0000
    931 C5'       -6.8293    -2.3579   773.7092 C.3      243 DC      0.0000
    932 C4'       -7.1264    -1.3195   772.6587 C.3      243 DC      0.0000
    933 O4'       -6.0236    -0.4780   772.4134 O.3      243 DC      0.0000
    934 C3'       -7.5416    -1.8723   771.2943 C.3      243 DC      0.0000
    935 O3'       -8.4831    -1.0640   770.5850 O.3      243 DC      0.0000
    936 C2'       -6.1740    -1.9940   770.6082 C.3      243 DC      0.0000
    937 C1'       -5.4227    -0.7816   771.1547 C.3      243 DC      0.0000
    938 N1        -3.9914    -1.1467   771.2725 N.am     243 DC      0.0000
    939 C2        -3.0700    -0.1005   771.2898 C.2      243 DC      0.0000
    940 O2        -3.4398     1.0797   771.2211 O.2      243 DC      0.0000
    941 N3        -1.7464    -0.4332   771.3930 N.2      243 DC      0.0000
    942 C4        -1.3296    -1.7245   771.4638 C.2      243 DC      0.0000
    943 N4        -0.0271    -1.9984   771.5657 N.pl3    243 DC      0.0000
    944 C5        -2.2907    -2.7733   771.4386 C.2      243 DC      0.0000
    945 C6        -3.5908    -2.4455   771.3450 C.2      243 DC      0.0000
    946 H5'       -7.7010    -2.5122   774.3452 H        243 DC      0.0000
    947 H5''      -5.9776    -2.0446   774.3131 H        243 DC      0.0000
    948 H4'       -7.9425    -0.6982   773.0275 H        243 DC      0.0000
    949 H3'       -7.9608    -2.8694   771.4285 H        243 DC      0.0000
    950 H2'       -6.2712    -1.9414   769.5238 H        243 DC      0.0000
    951 H2''      -5.6775    -2.9181   770.9041 H        243 DC      0.0000
    952 H1'       -5.5361     0.0632   770.4754 H        243 DC      0.0000
    953 H5        -1.9832    -3.8071   771.4934 H        243 DC      0.0000
    954 H6        -4.3336    -3.2294   771.3269 H        243 DC      0.0000
    955 H41        0.6470    -1.2465   771.5864 H        243 DC      0.0000
    956 H42        0.2843    -2.9575   771.6221 H        243 DC      0.0000
    957 P         -8.5209    -0.8332   768.9530 P.3      242 DA      0.0000
    958 OP1       -9.9253    -0.4250   768.5635 O.co2    242 DA      0.0000
    959 OP2       -8.0668    -2.1307   768.3829 O.co2    242 DA      0.0000
    960 O5'       -7.5695     0.4380   768.7875 O.3      242 DA      0.0000
    961 C5'       -8.0783     1.7481   769.2529 C.3      242 DA      0.0000
    962 C4'       -7.2986     2.7127   768.3756 C.3      242 DA      0.0000
    963 O4'       -5.8962     2.5848   768.6429 O.3      242 DA      0.0000
    964 C3'       -7.4351     2.4179   766.8712 C.3      242 DA      0.0000
    965 O3'       -7.0249     3.5232   766.0822 O.3      242 DA      0.0000
    966 C2'       -6.3365     1.3555   766.6837 C.3      242 DA      0.0000
    967 C1'       -5.2438     2.1611   767.4384 C.3      242 DA      0.0000
    968 N9        -4.1345     1.2241   767.5838 N.ar     242 DA      0.0000
    969 C8        -4.2260    -0.1479   767.6567 C.ar     242 DA      0.0000
    970 N7        -3.0641    -0.7408   767.7713 N.ar     242 DA      0.0000
    971 C5        -2.1478     0.3260   767.7649 C.ar     242 DA      0.0000
    972 C6        -0.7293     0.3368   767.8649 C.ar     242 DA      0.0000
    973 N6         0.0154    -0.7658   767.9877 N.pl3    242 DA      0.0000
    974 N1        -0.1720     1.5794   767.8297 N.ar     242 DA      0.0000
    975 C2        -0.9274     2.6987   767.7108 C.ar     242 DA      0.0000
    976 N3        -2.2590     2.7614   767.6194 N.ar     242 DA      0.0000
    977 C4        -2.7975     1.5298   767.6469 C.ar     242 DA      0.0000
    978 H5'       -9.1515     1.8390   769.0861 H        242 DA      0.0000
    979 H5''      -7.8373     1.9032   770.3045 H        242 DA      0.0000
    980 H4'       -7.6190     3.7344   768.5796 H        242 DA      0.0000
    981 H3'       -8.4258     2.0520   766.6016 H        242 DA      0.0000
    982 H2'       -6.5748     0.4072   767.1654 H        242 DA      0.0000
    983 H2''      -6.0827     1.2202   765.6324 H        242 DA      0.0000
    984 H1'       -4.9355     3.0252   766.8500 H        242 DA      0.0000
    985 H8        -5.1639    -0.6824   767.6226 H        242 DA      0.0000
    986 H2        -0.3970     3.6391   767.6876 H        242 DA      0.0000
    987 H61       -0.4265    -1.6735   768.0125 H        242 DA      0.0000
    988 H62        1.0204    -0.6913   768.0558 H        242 DA      0.0000
    989 P         -7.9666     4.1003   764.9412 P.3      241 DC      0.0000
    990 OP1       -8.8875     5.0237   765.7215 O.co2    241 DC      0.0000
    991 OP2       -8.6868     3.0479   764.2156 O.co2    241 DC      0.0000
    992 O5'       -6.8547     4.8185   763.9654 O.3      241 DC      0.0000
    993 C5'       -5.9306     5.7593   764.6344 C.3      241 DC      0.0000
    994 C4'       -4.5749     5.6368   763.9904 C.3      241 DC      0.0000
    995 O4'       -3.7204     4.6950   764.6275 O.3      241 DC      0.0000
    996 C3'       -4.6501     5.2165   762.5125 C.3      241 DC      0.0000
    997 O3'       -3.6227     5.7720   761.7012 O.3      241 DC      0.0000
    998 C2'       -4.3967     3.6822   762.6782 C.3      241 DC      0.0000
    999 C1'       -3.1236     3.9103   763.5738 C.3      241 DC      0.0000
   1000 N1        -2.5394     2.6163   763.8117 N.am     241 DC      0.0000
   1001 C2        -1.1925     2.5480   764.1288 C.2      241 DC      0.0000
   1002 O2        -0.3671     3.4574   764.2693 O.2      241 DC      0.0000
   1003 N3        -0.6420     1.3122   764.3270 N.2      241 DC      0.0000
   1004 C4        -1.3770     0.1645   764.2110 C.2      241 DC      0.0000
   1005 N4        -0.7957    -1.0258   764.4271 N.pl3    241 DC      0.0000
   1006 C5        -2.7579     0.2506   763.8814 C.2      241 DC      0.0000
   1007 C6        -3.2733     1.4704   763.6897 C.2      241 DC      0.0000
   1008 H5'       -6.2997     6.7789   764.5229 H        241 DC      0.0000
   1009 H5''      -5.8572     5.5101   765.6930 H        241 DC      0.0000
   1010 H4'       -4.0921     6.6128   764.0371 H        241 DC      0.0000
   1011 H3'       -5.6369     5.4130   762.0935 H        241 DC      0.0000
   1012 H2'       -5.2034     3.1627   763.1953 H        241 DC      0.0000
   1013 H2''      -4.1475     3.2058   761.7300 H        241 DC      0.0000
   1014 H1'       -2.4105     4.5288   763.0289 H        241 DC      0.0000
   1015 H5        -3.3678    -0.6360   763.7893 H        241 DC      0.0000
   1016 H6        -4.3175     1.5529   763.4264 H        241 DC      0.0000
   1017 H41        0.1841    -1.0731   764.6676 H        241 DC      0.0000
   1018 H42       -1.3381    -1.8743   764.3492 H        241 DC      0.0000
   1019 P          9.1124    -4.1648   798.3004 P.3      251 DG      0.0000
   1020 OP1       10.0063    -5.3490   798.2989 O.co2    251 DG      0.0000
   1021 OP2        8.0289    -4.4288   799.3561 O.co2    251 DG      0.0000
   1022 O5'        9.8036    -2.7428   798.4788 O.3      251 DG      0.0000
   1023 C5'       10.1002    -1.7451   797.4788 C.3      251 DG      0.0000
   1024 C4'        9.5865    -0.4105   797.9776 C.3      251 DG      0.0000
   1025 O4'        8.2622    -0.1613   797.5585 O.3      251 DG      0.0000
   1026 C3'        9.6243    -0.1494   799.4698 C.3      251 DG      0.0000
   1027 O3'       10.3321     1.0807   799.7818 O.3      251 DG      0.0000
   1028 C2'        8.1675    -0.1273   799.8917 C.3      251 DG      0.0000
   1029 C1'        7.4415     0.2912   798.6360 C.3      251 DG      0.0000
   1030 N9         6.0952    -0.3089   798.6070 N.ar     251 DG      0.0000
   1031 C8         5.7154    -1.6103   798.8359 C.ar     251 DG      0.0000
   1032 N7         4.4206    -1.8151   798.7462 N.ar     251 DG      0.0000
   1033 C5         3.9080    -0.5598   798.4291 C.ar     251 DG      0.0000
   1034 C6         2.5834    -0.1107   798.2032 C.2      251 DG      0.0000
   1035 O6         1.5419    -0.7673   798.2245 O.2      251 DG      0.0000
   1036 N1         2.4605     1.2223   797.9217 N.am     251 DG      0.0000
   1037 C2         3.4725     2.0275   797.8611 C.2      251 DG      0.0000
   1038 N2         3.0866     3.2074   797.5643 N.pl3    251 DG      0.0000
   1039 N3         4.8114     1.6815   798.0698 N.2      251 DG      0.0000
   1040 C4         4.9239     0.3736   798.3424 C.ar     251 DG      0.0000
   1041 H5'       11.1772    -1.6901   797.3201 H        251 DG      0.0000
   1042 H5''       9.6038    -2.0034   796.5434 H        251 DG      0.0000
   1043 H4'       10.2083     0.3546   797.5129 H        251 DG      0.0000
   1044 H3'       10.1247    -0.9823   799.9638 H        251 DG      0.0000
   1045 H2'        7.8419    -1.1147   800.2187 H        251 DG      0.0000
   1046 H2''       8.0118     0.6058   800.6832 H        251 DG      0.0000
   1047 H1'        7.3598     1.3776   798.6041 H        251 DG      0.0000
   1048 H8         6.4195    -2.3954   799.0689 H        251 DG      0.0000
   1049 H1         1.5373     1.5957   797.7533 H        251 DG      0.0000
   1050 H21        2.1050     3.3963   797.4199 H        251 DG      0.0000
   1051 H22        3.7628     3.9521   797.4738 H        251 DG      0.0000
   1052 P         10.2875     1.7513   801.2103 P.3      252 DT      0.0000
   1053 OP1       11.5855     2.3204   801.7220 O.co2    252 DT      0.0000
   1054 OP2        9.9977     0.5504   802.1290 O.co2    252 DT      0.0000
   1055 O5'        9.0755     2.7173   801.2389 O.3      252 DT      0.0000
   1056 C5'        9.2046     4.1585   801.0949 C.3      252 DT      0.0000
   1057 C4'        7.7828     4.6768   801.1524 C.3      252 DT      0.0000
   1058 O4'        6.8361     3.6677   800.8773 O.3      252 DT      0.0000
   1059 C3'        7.3380     5.2704   802.4652 C.3      252 DT      0.0000
   1060 O3'        7.0812     6.6698   802.2769 O.3      252 DT      0.0000
   1061 C2'        6.0691     4.5139   802.8574 C.3      252 DT      0.0000
   1062 C1'        5.5818     4.0640   801.5046 C.3      252 DT      0.0000
   1063 N1         4.7448     2.8679   801.6013 N.am     252 DT      0.0000
   1064 C2         3.3995     3.0223   801.4033 C.2      252 DT      0.0000
   1065 O2         2.8886     4.1142   801.1652 O.2      252 DT      0.0000
   1066 N3         2.6242     1.8970   801.4844 N.am     252 DT      0.0000
   1067 C4         3.1333     0.6706   801.7403 C.2      252 DT      0.0000
   1068 O4         2.2966    -0.2689   801.7856 O.2      252 DT      0.0000
   1069 C5         4.5440     0.5280   801.9400 C.2      252 DT      0.0000
   1070 C7         5.1469    -0.8102   802.2199 C.3      252 DT      0.0000
   1071 C6         5.2946     1.6340   801.8585 C.2      252 DT      0.0000
   1072 H5'        9.7990     4.5747   801.9084 H        252 DT      0.0000
   1073 H5''       9.6569     4.4028   800.1337 H        252 DT      0.0000
   1074 H4'        7.6790     5.4467   800.3879 H        252 DT      0.0000
   1075 H3'        8.1092     5.1284   803.2223 H        252 DT      0.0000
   1076 H2'        6.2913     3.6666   803.5062 H        252 DT      0.0000
   1077 H2''       5.3480     5.1832   803.3266 H        252 DT      0.0000
   1078 H1'        5.0868     4.8675   800.9593 H        252 DT      0.0000
   1079 H3         1.6277     1.9867   801.3469 H        252 DT      0.0000
   1080 H6         6.3625     1.5546   801.9989 H        252 DT      0.0000
   1081 H71        5.6166    -1.1942   801.3144 H        252 DT      0.0000
   1082 H72        4.3671    -1.4990   802.5447 H        252 DT      0.0000
   1083 H73        5.8967    -0.7138   803.0052 H        252 DT      0.0000
   1084 P          7.5161     7.5745   803.5569 P.3      253 DG      0.0000
   1085 OP1        8.0275     8.8187   802.8418 O.co2    253 DG      0.0000
   1086 OP2        8.5345     6.8651   804.3104 O.co2    253 DG      0.0000
   1087 O5'        6.0098     7.7296   804.1664 O.3      253 DG      0.0000
   1088 C5'        5.0737     8.0726   803.0758 C.3      253 DG      0.0000
   1089 C4'        3.6796     7.8801   803.5959 C.3      253 DG      0.0000
   1090 O4'        3.1134     6.6096   803.4153 O.3      253 DG      0.0000
   1091 C3'        3.5595     8.2100   805.1039 C.3      253 DG      0.0000
   1092 O3'        2.5022     9.1868   805.2628 O.3      253 DG      0.0000
   1093 C2'        3.3349     6.8627   805.7565 C.3      253 DG      0.0000
   1094 C1'        2.5599     6.1191   804.6749 C.3      253 DG      0.0000
   1095 N9         2.6672     4.6658   804.8445 N.ar     253 DG      0.0000
   1096 C8         3.7648     3.9223   805.1807 C.ar     253 DG      0.0000
   1097 N7         3.5453     2.6288   805.2664 N.ar     253 DG      0.0000
   1098 C5         2.1964     2.5188   804.9364 C.ar     253 DG      0.0000
   1099 C6         1.3507     1.3767   804.8420 C.2      253 DG      0.0000
   1100 O6         1.6450     0.1875   805.0344 O.2      253 DG      0.0000
   1101 N1         0.0466     1.6609   804.5070 N.am     253 DG      0.0000
   1102 C2        -0.3786     2.9349   804.2832 C.2      253 DG      0.0000
   1103 N2        -1.6790     3.0228   803.9744 N.pl3    253 DG      0.0000
   1104 N3         0.3719     4.0319   804.3543 N.2      253 DG      0.0000
   1105 C4         1.6462     3.7565   804.6808 C.ar     253 DG      0.0000
   1106 H5'        5.2180     9.1104   802.7753 H        253 DG      0.0000
   1107 H5''       5.2435     7.4148   802.2234 H        253 DG      0.0000
   1108 H4'        3.0433     8.5884   803.0653 H        253 DG      0.0000
   1109 H3'        4.4996     8.6325   805.4587 H        253 DG      0.0000
   1110 H2'        4.2798     6.3672   805.9794 H        253 DG      0.0000
   1111 H2''       2.7326     6.9674   806.6589 H        253 DG      0.0000
   1112 H1'        1.5097     6.4047   804.7339 H        253 DG      0.0000
   1113 H8         4.7344     4.3625   805.3613 H        253 DG      0.0000
   1114 H1        -0.6148     0.9020   804.4247 H        253 DG      0.0000
   1115 H21       -2.2438     2.1869   803.9242 H        253 DG      0.0000
   1116 H22       -2.0949     3.9250   803.7917 H        253 DG      0.0000
   1117 P          2.1859     9.8317   806.6512 P.3      254 DA      0.0000
   1118 OP1        2.9402    11.0719   807.0065 O.co2    254 DA      0.0000
   1119 OP2        2.7429     8.6650   807.5469 O.co2    254 DA      0.0000
   1120 O5'        0.6203     9.7901   806.9003 O.3      254 DA      0.0000
   1121 C5'       -0.3760     9.7004   805.8712 C.3      254 DA      0.0000
   1122 C4'       -1.3470     8.6313   806.3456 C.3      254 DA      0.0000
   1123 O4'       -0.7540     7.3536   806.2552 O.3      254 DA      0.0000
   1124 C3'       -1.8699     8.7782   807.7746 C.3      254 DA      0.0000
   1125 O3'       -3.3011     8.6057   807.8269 O.3      254 DA      0.0000
   1126 C2'       -1.1057     7.6705   808.5101 C.3      254 DA      0.0000
   1127 C1'       -1.1381     6.5974   807.4325 C.3      254 DA      0.0000
   1128 N9        -0.1911     5.5014   807.6609 N.ar     254 DA      0.0000
   1129 C8         1.1574     5.5367   807.8766 C.ar     254 DA      0.0000
   1130 N7         1.7018     4.3518   808.0416 N.ar     254 DA      0.0000
   1131 C5         0.6370     3.4742   807.9014 C.ar     254 DA      0.0000
   1132 C6         0.5739     2.0644   807.9494 C.ar     254 DA      0.0000
   1133 N6         1.6232     1.2687   808.1691 N.pl3    254 DA      0.0000
   1134 N1        -0.6692     1.5302   807.7596 N.ar     254 DA      0.0000
   1135 C2        -1.7469     2.3189   807.5418 C.ar     254 DA      0.0000
   1136 N3        -1.7628     3.6500   807.4836 N.ar     254 DA      0.0000
   1137 C4        -0.5313     4.1585   807.6704 C.ar     254 DA      0.0000
   1138 H5'        0.0786     9.4100   804.9241 H        254 DA      0.0000
   1139 H5''      -0.8915    10.6548   805.7635 H        254 DA      0.0000
   1140 H4'       -2.2069     8.6449   805.6758 H        254 DA      0.0000
   1141 H3'       -1.5948     9.7536   808.1760 H        254 DA      0.0000
   1142 H2'       -0.0872     7.9714   808.7556 H        254 DA      0.0000
   1143 H2''      -1.6444     7.3478   809.4010 H        254 DA      0.0000
   1144 H1'       -2.1491     6.2063   807.3180 H        254 DA      0.0000
   1145 H8         1.7247     6.4551   807.9087 H        254 DA      0.0000
   1146 H2        -2.6928     1.8171   807.4005 H        254 DA      0.0000
   1147 H61        2.5898     1.5453   808.0717 H        254 DA      0.0000
   1148 H62        1.5184     0.2790   807.9976 H        254 DA      0.0000
   1149 P         -4.2328     9.3318   808.9683 P.3      255 DA      0.0000
   1150 OP1       -5.2168    10.2604   808.3013 O.co2    255 DA      0.0000
   1151 OP2       -3.2041     9.9899   809.7993 O.co2    255 DA      0.0000
   1152 O5'       -5.1302     8.1243   809.4992 O.3      255 DA      0.0000
   1153 C5'       -6.0356     7.3923   808.6748 C.3      255 DA      0.0000
   1154 C4'       -6.1033     5.9680   809.1972 C.3      255 DA      0.0000
   1155 O4'       -4.8349     5.3768   809.2253 O.3      255 DA      0.0000
   1156 C3'       -6.7287     5.7527   810.5645 C.3      255 DA      0.0000
   1157 O3'       -7.9167     4.9652   810.4866 O.3      255 DA      0.0000
   1158 C2'       -5.5932     5.1395   811.3932 C.3      255 DA      0.0000
   1159 C1'       -4.6941     4.5131   810.3994 C.3      255 DA      0.0000
   1160 N9        -3.2489     4.4001   810.6675 N.ar     255 DA      0.0000
   1161 C8        -2.2926     5.3797   810.7826 C.ar     255 DA      0.0000
   1162 N7        -1.0743     4.9232   810.9519 N.ar     255 DA      0.0000
   1163 C5        -1.2299     3.5412   810.9149 C.ar     255 DA      0.0000
   1164 C6        -0.2902     2.4781   811.0354 C.ar     255 DA      0.0000
   1165 N6         1.0152     2.6220   811.2270 N.pl3    255 DA      0.0000
   1166 N1        -0.8113     1.2122   810.9372 N.ar     255 DA      0.0000
   1167 C2        -2.1497     1.0245   810.7481 C.ar     255 DA      0.0000
   1168 N3        -3.0781     1.9681   810.6403 N.ar     255 DA      0.0000
   1169 C4        -2.5515     3.2057   810.7321 C.ar     255 DA      0.0000
   1170 H5'       -5.6790     7.3914   807.6448 H        255 DA      0.0000
   1171 H5''      -7.0248     7.8479   808.7208 H        255 DA      0.0000
   1172 H4'       -6.7003     5.3990   808.4844 H        255 DA      0.0000
   1173 H3'       -6.9826     6.7245   810.9877 H        255 DA      0.0000
   1174 H2'       -5.0667     5.9122   811.9535 H        255 DA      0.0000
   1175 H2''      -5.9881     4.3844   812.0728 H        255 DA      0.0000
   1176 H1'       -5.0814     3.5243   810.1533 H        255 DA      0.0000
   1177 H8        -2.5235     6.4337   810.7378 H        255 DA      0.0000
   1178 H2        -2.4894     0.0016   810.6790 H        255 DA      0.0000
   1179 H61        1.4198     3.4881   811.5532 H        255 DA      0.0000
   1180 H62        1.6248     1.8387   811.0402 H        255 DA      0.0000
   1181 P         -9.2220     5.1266   811.4429 P.3      256 DT      0.0000
   1182 OP1      -10.5167     5.0152   810.6455 O.co2    256 DT      0.0000
   1183 OP2       -9.1113     6.3144   812.2635 O.co2    256 DT      0.0000
   1184 O5'       -9.2129     3.6973   812.2566 O.3      256 DT      0.0000
   1185 C5'       -8.8493     2.6022   811.3115 C.3      256 DT      0.0000
   1186 C4'       -7.9078     1.7270   812.0992 C.3      256 DT      0.0000
   1187 O4'       -6.6323     2.2962   812.2912 O.3      256 DT      0.0000
   1188 C3'       -8.4349     1.4324   813.5158 C.3      256 DT      0.0000
   1189 O3'       -9.0661     0.1654   813.5174 O.3      256 DT      0.0000
   1190 C2'       -7.2042     1.5376   814.4130 C.3      256 DT      0.0000
   1191 C1'       -6.0864     1.5250   813.4484 C.3      256 DT      0.0000
   1192 N1        -4.8092     2.1317   813.7882 N.am     256 DT      0.0000
   1193 C2        -3.7227     1.2736   813.9261 C.2      256 DT      0.0000
   1194 O2        -3.8876     0.0636   813.8381 O.2      256 DT      0.0000
   1195 N3        -2.5001     1.8181   814.1801 N.am     256 DT      0.0000
   1196 C4        -2.3026     3.1639   814.3002 C.2      256 DT      0.0000
   1197 O4        -1.1325     3.5939   814.5554 O.2      256 DT      0.0000
   1198 C5        -3.4325     4.0298   814.1287 C.2      256 DT      0.0000
   1199 C7        -3.2652     5.5215   814.2162 C.3      256 DT      0.0000
   1200 C6        -4.6356     3.4877   813.8729 C.2      256 DT      0.0000
   1201 H5'       -9.7349     2.0429   811.0098 H        256 DT      0.0000
   1202 H5''      -8.3434     3.0103   810.4365 H        256 DT      0.0000
   1203 H4'       -7.7893     0.7814   811.5701 H        256 DT      0.0000
   1204 H3'       -9.1572     2.1977   813.8001 H        256 DT      0.0000
   1205 H2'       -7.2160     2.4645   814.9864 H        256 DT      0.0000
   1206 H2''      -7.1430     0.6772   815.0794 H        256 DT      0.0000
   1207 H1'       -5.9110     0.4971   813.1311 H        256 DT      0.0000
   1208 H3        -1.7073     1.2011   814.2838 H        256 DT      0.0000
   1209 H6        -5.4866     4.1374   813.7308 H        256 DT      0.0000
   1210 H71       -2.2230     5.7588   814.4292 H        256 DT      0.0000
   1211 H72       -3.5546     5.9754   813.2684 H        256 DT      0.0000
   1212 H73       -3.8972     5.9117   815.0140 H        256 DT      0.0000
   1213 P         -9.9324    -0.4939   814.6241 P.3      257 DT      0.0000
   1214 OP1      -10.8577    -1.5772   814.0120 O.co2    257 DT      0.0000
   1215 OP2      -10.7101     0.6040   815.2540 O.co2    257 DT      0.0000
   1216 O5'       -8.8874    -1.3314   815.5064 O.3      257 DT      0.0000
   1217 C5'       -8.3594    -2.4826   814.7946 C.3      257 DT      0.0000
   1218 C4'       -7.1102    -2.9304   815.4708 C.3      257 DT      0.0000
   1219 O4'       -6.0666    -1.9645   815.4475 O.3      257 DT      0.0000
   1220 C3'       -7.2966    -3.3450   816.9374 C.3      257 DT      0.0000
   1221 O3'       -6.5864    -4.5400   817.2015 O.3      257 DT      0.0000
   1222 C2'       -6.6235    -2.1623   817.6738 C.3      257 DT      0.0000
   1223 C1'       -5.4147    -2.0280   816.7702 C.3      257 DT      0.0000
   1224 N1        -4.6718    -0.8174   817.0679 N.am     257 DT      0.0000
   1225 C2        -3.2892    -0.8871   817.1227 C.2      257 DT      0.0000
   1226 O2        -2.7391    -1.9731   816.9343 O.2      257 DT      0.0000
   1227 N3        -2.5944     0.2591   817.3886 N.am     257 DT      0.0000
   1228 C4        -3.2153     1.4525   817.5956 C.2      257 DT      0.0000
   1229 O4        -2.5056     2.4747   817.8189 O.2      257 DT      0.0000
   1230 C5        -4.6379     1.5133   817.5306 C.2      257 DT      0.0000
   1231 C7        -5.3949     2.7922   817.7405 C.3      257 DT      0.0000
   1232 C6        -5.3046     0.3780   817.2694 C.2      257 DT      0.0000
   1233 H5'       -9.0924    -3.2892   814.8071 H        257 DT      0.0000
   1234 H5''      -8.1381    -2.2054   813.7639 H        257 DT      0.0000
   1235 H4'       -6.7495    -3.8067   814.9323 H        257 DT      0.0000
   1236 H3'       -8.3506    -3.4360   817.1999 H        257 DT      0.0000
   1237 H2'       -7.2437    -1.2661   817.6725 H        257 DT      0.0000
   1238 H2''      -6.3319    -2.4407   818.6865 H        257 DT      0.0000
   1239 H1'       -4.7734    -2.9061   816.8458 H        257 DT      0.0000
   1240 H3        -1.5861     0.2194   817.4330 H        257 DT      0.0000
   1241 H6        -6.3828     0.4099   817.2164 H        257 DT      0.0000
   1242 H71       -4.6930     3.6020   817.9394 H        257 DT      0.0000
   1243 H72       -5.9720     3.0236   816.8452 H        257 DT      0.0000
   1244 H73       -6.0699     2.6798   818.5889 H        257 DT      0.0000
   1245 P         -6.9205    -5.9477   817.8094 P.3      258 DC      0.0000
   1246 OP1       -6.9263    -7.0246   816.7415 O.co2    258 DC      0.0000
   1247 OP2       -8.1854    -5.7648   818.5444 O.co2    258 DC      0.0000
   1248 O5'       -5.5253    -6.1245   818.6354 O.3      258 DC      0.0000
   1249 C5'       -4.4877    -5.8929   817.6132 C.3      258 DC      0.0000
   1250 C4'       -3.1588    -5.9666   818.3097 C.3      258 DC      0.0000
   1251 O4'       -2.6115    -4.7086   818.5566 O.3      258 DC      0.0000
   1252 C3'       -3.1490    -6.7767   819.6011 C.3      258 DC      0.0000
   1253 O3'       -2.1866    -7.8198   819.5215 O.3      258 DC      0.0000
   1254 C2'       -2.9448    -5.6813   820.6499 C.3      258 DC      0.0000
   1255 C1'       -2.1706    -4.6332   819.9535 C.3      258 DC      0.0000
   1256 N1        -2.4839    -3.2398   820.2856 N.am     258 DC      0.0000
   1257 C2        -1.3908    -2.4148   820.5414 C.2      258 DC      0.0000
   1258 O2        -0.2382    -2.8579   820.5459 O.2      258 DC      0.0000
   1259 N3        -1.6458    -1.0937   820.8152 N.2      258 DC      0.0000
   1260 C4        -2.9159    -0.5966   820.8053 C.2      258 DC      0.0000
   1261 N4        -3.0599     0.6947   821.0822 N.pl3    258 DC      0.0000
   1262 C5        -4.0129    -1.4415   820.5273 C.2      258 DC      0.0000
   1263 C6        -3.7461    -2.7369   820.2625 C.2      258 DC      0.0000
   1264 H5'       -4.5474    -6.6584   816.8395 H        258 DC      0.0000
   1265 H5''      -4.6189    -4.9062   817.1690 H        258 DC      0.0000
   1266 H4'       -2.4779    -6.4706   817.6237 H        258 DC      0.0000
   1267 H3'       -4.1346    -7.2196   819.7444 H        258 DC      0.0000
   1268 H2'       -3.9042    -5.2895   820.9878 H        258 DC      0.0000
   1269 H2''      -2.3773    -6.0700   821.4954 H        258 DC      0.0000
   1270 H1'       -1.1001    -4.8215   820.0344 H        258 DC      0.0000
   1271 H5        -5.0253    -1.0653   820.5267 H        258 DC      0.0000
   1272 H6        -4.5655    -3.3986   820.0235 H        258 DC      0.0000
   1273 H41       -2.2484     1.2620   821.2814 H        258 DC      0.0000
   1274 H42       -3.9809     1.1090   821.0935 H        258 DC      0.0000
   1275 P         -2.1099    -9.1317   820.4735 P.3      259 DA      0.0000
   1276 OP1       -1.4049   -10.2148   819.6798 O.co2    259 DA      0.0000
   1277 OP2       -3.4925    -9.5204   820.8190 O.co2    259 DA      0.0000
   1278 O5'       -1.2302    -8.6298   821.7705 O.3      259 DA      0.0000
   1279 C5'        0.0577    -8.0075   821.4753 C.3      259 DA      0.0000
   1280 C4'        0.6983    -7.5128   822.7306 C.3      259 DA      0.0000
   1281 O4'        0.5558    -6.1099   822.9727 O.3      259 DA      0.0000
   1282 C3'        0.1611    -8.1234   824.0358 C.3      259 DA      0.0000
   1283 O3'        1.1317    -7.9226   825.0657 O.3      259 DA      0.0000
   1284 C2'       -1.0651    -7.2138   824.2504 C.3      259 DA      0.0000
   1285 C1'       -0.3290    -5.8824   824.0671 C.3      259 DA      0.0000
   1286 N9        -1.3015    -4.8068   823.9728 N.ar     259 DA      0.0000
   1287 C8        -2.6635    -4.8453   823.8570 C.ar     259 DA      0.0000
   1288 N7        -3.2554    -3.6645   823.8384 N.ar     259 DA      0.0000
   1289 C5        -2.1940    -2.7771   823.9459 C.ar     259 DA      0.0000
   1290 C6        -2.1399    -1.3618   823.9804 C.ar     259 DA      0.0000
   1291 N6        -3.1935    -0.5697   823.8952 N.pl3    259 DA      0.0000
   1292 N1        -0.8977    -0.8105   824.1130 N.ar     259 DA      0.0000
   1293 C2         0.2224    -1.5945   824.1932 C.ar     259 DA      0.0000
   1294 N3         0.2522    -2.9247   824.1633 N.ar     259 DA      0.0000
   1295 C4        -0.9894    -3.4548   824.0403 C.ar     259 DA      0.0000
   1296 H5'        0.7113    -8.7416   821.0041 H        259 DA      0.0000
   1297 H5''      -0.0942    -7.1702   820.7940 H        259 DA      0.0000
   1298 H4'        1.7637    -7.7350   822.6717 H        259 DA      0.0000
   1299 H3'       -0.1138    -9.1720   823.9221 H        259 DA      0.0000
   1300 H2'       -1.8395    -7.3709   823.4996 H        259 DA      0.0000
   1301 H2''      -1.4632    -7.3133   825.2603 H        259 DA      0.0000
   1302 H1'        0.2765    -5.7093   824.9568 H        259 DA      0.0000
   1303 H8        -3.2140    -5.7717   823.7860 H        259 DA      0.0000
   1304 H2         1.1701    -1.0856   824.2896 H        259 DA      0.0000
   1305 H61       -3.3525     0.4114   824.0752 H        259 DA      0.0000
   1306 H62       -4.0235    -1.0515   823.5804 H        259 DA      0.0000
   1307 P          2.4084    -8.8770   825.2062 P.3      260 DC      0.0000
   1308 OP1        2.7134    -9.6371   823.9611 O.co2    260 DC      0.0000
   1309 OP2        2.0145    -9.7675   826.3491 O.co2    260 DC      0.0000
   1310 O5'        3.5930    -7.8617   825.4894 O.3      260 DC      0.0000
   1311 C5'        4.2541    -7.1471   824.4016 C.3      260 DC      0.0000
   1312 C4'        4.7032    -5.8621   825.1066 C.3      260 DC      0.0000
   1313 O4'        3.5430    -5.1265   825.4186 O.3      260 DC      0.0000
   1314 C3'        5.4478    -6.1066   826.4165 C.3      260 DC      0.0000
   1315 O3'        6.7115    -5.4079   826.4844 O.3      260 DC      0.0000
   1316 C2'        4.4508    -5.6654   827.4987 C.3      260 DC      0.0000
   1317 C1'        3.6995    -4.5913   826.8225 C.3      260 DC      0.0000
   1318 N1         2.3143    -4.2910   827.1753 N.am     260 DC      0.0000
   1319 C2         1.9761    -2.9393   827.1485 C.2      260 DC      0.0000
   1320 O2         2.7984    -2.0558   826.9415 O.2      260 DC      0.0000
   1321 N3         0.6799    -2.6143   827.4016 N.2      260 DC      0.0000
   1322 C4        -0.2725    -3.5494   827.6349 C.2      260 DC      0.0000
   1323 N4        -1.5074    -3.1076   827.8659 N.pl3    260 DC      0.0000
   1324 C5         0.0823    -4.9265   827.6415 C.2      260 DC      0.0000
   1325 C6         1.3632    -5.2396   827.3921 C.2      260 DC      0.0000
   1326 H5'        5.1057    -7.7081   824.0168 H        260 DC      0.0000
   1327 H5''       3.5477    -6.9219   823.6026 H        260 DC      0.0000
   1328 H4'        5.3328    -5.2797   824.4339 H        260 DC      0.0000
   1329 H3'        5.6312    -7.1759   826.5224 H        260 DC      0.0000
   1330 H2'        3.7928    -6.4857   827.7857 H        260 DC      0.0000
   1331 H2''       4.9781    -5.2747   828.3690 H        260 DC      0.0000
   1332 H1'        4.2888    -3.6745   826.8093 H        260 DC      0.0000
   1333 H5        -0.6525    -5.6927   827.8400 H        260 DC      0.0000
   1334 H6         1.6491    -6.2806   827.3623 H        260 DC      0.0000
   1335 H41       -1.6992    -2.1161   827.8548 H        260 DC      0.0000
   1336 H42       -2.2520    -3.7641   828.0520 H        260 DC      0.0000
   1337 P         -5.6743     6.3126   829.4439 P.3      260 DG      0.0000
   1338 OP1       -6.7157     7.3711   829.6227 O.co2    260 DG      0.0000
   1339 OP2       -6.0289     5.3042   828.3591 O.co2    260 DG      0.0000
   1340 O5'       -4.2041     7.0231   829.2367 O.3      260 DG      0.0000
   1341 C5'       -3.2307     6.9829   830.3324 C.3      260 DG      0.0000
   1342 C4'       -1.8557     6.7866   829.6982 C.3      260 DG      0.0000
   1343 O4'       -1.5101     5.4317   829.6023 O.3      260 DG      0.0000
   1344 C3'       -1.7204     7.3644   828.2918 C.3      260 DG      0.0000
   1345 O3'       -0.4460     7.9941   828.0248 O.3      260 DG      0.0000
   1346 C2'       -1.9432     6.1372   827.3895 C.3      260 DG      0.0000
   1347 C1'       -1.2691     5.0526   828.2134 C.3      260 DG      0.0000
   1348 N9        -1.8631     3.7329   827.9401 N.ar     260 DG      0.0000
   1349 C8        -3.1926     3.4205   827.7834 C.ar     260 DG      0.0000
   1350 N7        -3.4179     2.1522   827.5650 N.ar     260 DG      0.0000
   1351 C5        -2.1500     1.5834   827.5898 C.ar     260 DG      0.0000
   1352 C6        -1.7226     0.2379   827.4333 C.2      260 DG      0.0000
   1353 O6        -2.4448    -0.7498   827.2365 O.2      260 DG      0.0000
   1354 N1        -0.3635     0.0629   827.5202 N.am     260 DG      0.0000
   1355 C2         0.4941     1.0892   827.7409 C.2      260 DG      0.0000
   1356 N2         1.7833     0.7675   827.8042 N.pl3    260 DG      0.0000
   1357 N3         0.1446     2.3718   827.8986 N.2      260 DG      0.0000
   1358 C4        -1.1891     2.5428   827.8153 C.ar     260 DG      0.0000
   1359 H5'       -3.2557     7.9190   830.8902 H        260 DG      0.0000
   1360 H5''      -3.4549     6.1488   830.9974 H        260 DG      0.0000
   1361 H4'       -1.1191     7.2767   830.3349 H        260 DG      0.0000
   1362 H3'       -2.5199     8.0854   828.1213 H        260 DG      0.0000
   1363 H2'       -3.0040     5.9316   827.2469 H        260 DG      0.0000
   1364 H2''      -1.4406     6.2646   826.4308 H        260 DG      0.0000
   1365 H1'       -0.1988     5.0339   828.0081 H        260 DG      0.0000
   1366 H8        -3.9804     4.1575   827.8361 H        260 DG      0.0000
   1367 H1         0.0126    -0.8686   827.4154 H        260 DG      0.0000
   1368 H21        2.0700    -0.1940   827.6892 H        260 DG      0.0000
   1369 H22        2.4753     1.4848   827.9674 H        260 DG      0.0000
   1370 P          0.0482     7.9410   826.5014 P.3      259 DT      0.0000
   1371 OP1        0.9341     9.0930   826.1105 O.co2    259 DT      0.0000
   1372 OP2       -1.2580     8.0058   825.8008 O.co2    259 DT      0.0000
   1373 O5'        0.8512     6.5607   826.3705 O.3      259 DT      0.0000
   1374 C5'        2.2893     6.6068   826.6381 C.3      259 DT      0.0000
   1375 C4'        2.9531     5.4771   825.8810 C.3      259 DT      0.0000
   1376 O4'        2.1710     4.2965   825.8538 O.3      259 DT      0.0000
   1377 C3'        3.2355     5.8193   824.4263 C.3      259 DT      0.0000
   1378 O3'        4.4872     5.2961   823.9312 O.3      259 DT      0.0000
   1379 C2'        2.0492     5.2208   823.7035 C.3      259 DT      0.0000
   1380 C1'        1.9144     3.9224   824.4816 C.3      259 DT      0.0000
   1381 N1         0.5191     3.4807   824.3303 N.am     259 DT      0.0000
   1382 C2         0.2926     2.1123   824.4371 C.2      259 DT      0.0000
   1383 O2         1.2266     1.3406   824.6268 O.2      259 DT      0.0000
   1384 N3        -0.9994     1.6823   824.3169 N.am     259 DT      0.0000
   1385 C4        -2.0298     2.5472   824.0993 C.2      259 DT      0.0000
   1386 O4        -3.2011     2.0520   824.0017 O.2      259 DT      0.0000
   1387 C5        -1.7666     3.9428   823.9929 C.2      259 DT      0.0000
   1388 C7        -2.8958     4.9061   823.7640 C.3      259 DT      0.0000
   1389 C6        -0.5029     4.3571   824.1147 C.2      259 DT      0.0000
   1390 H5'        2.6952     7.5618   826.3044 H        259 DT      0.0000
   1391 H5''       2.4673     6.4863   827.7067 H        259 DT      0.0000
   1392 H4'        3.9006     5.2487   826.3690 H        259 DT      0.0000
   1393 H3'        3.2238     6.9022   824.3023 H        259 DT      0.0000
   1394 H2'        1.1599     5.8443   823.7950 H        259 DT      0.0000
   1395 H2''       2.2855     5.0272   822.6571 H        259 DT      0.0000
   1396 H1'        2.6174     3.1667   824.1309 H        259 DT      0.0000
   1397 H3        -1.1961     0.6945   824.3916 H        259 DT      0.0000
   1398 H6        -0.2851     5.4123   824.0405 H        259 DT      0.0000
   1399 H71       -3.8346     4.3565   823.6953 H        259 DT      0.0000
   1400 H72       -2.9469     5.6097   824.5949 H        259 DT      0.0000
   1401 H73       -2.7255     5.4517   822.8358 H        259 DT      0.0000
   1402 P          5.2628     6.5399   823.1528 P.3      258 DG      0.0000
   1403 OP1        6.2282     7.2755   824.0241 O.co2    258 DG      0.0000
   1404 OP2        4.0688     7.3228   822.7473 O.co2    258 DG      0.0000
   1405 O5'        6.1106     5.7228   822.0720 O.3      258 DG      0.0000
   1406 C5'        7.3277     5.0576   822.4955 C.3      258 DG      0.0000
   1407 C4'        7.1569     3.6114   822.0478 C.3      258 DG      0.0000
   1408 O4'        5.8373     3.1830   822.3185 O.3      258 DG      0.0000
   1409 C3'        7.4189     3.3769   820.5600 C.3      258 DG      0.0000
   1410 O3'        8.4140     2.3909   820.3515 O.3      258 DG      0.0000
   1411 C2'        6.0510     3.0577   819.9833 C.3      258 DG      0.0000
   1412 C1'        5.3153     2.4805   821.1695 C.3      258 DG      0.0000
   1413 N9         3.8713     2.6969   821.0459 N.ar     258 DG      0.0000
   1414 C8         3.2011     3.8768   820.8870 C.ar     258 DG      0.0000
   1415 N7         1.9000     3.7381   820.8090 N.ar     258 DG      0.0000
   1416 C5         1.6971     2.3681   820.9465 C.ar     258 DG      0.0000
   1417 C6         0.5148     1.5820   820.9560 C.2      258 DG      0.0000
   1418 O6        -0.6410     1.9813   820.8569 O.2      258 DG      0.0000
   1419 N1         0.7253     0.2406   821.1049 N.am     258 DG      0.0000
   1420 C2         1.9855    -0.2904   821.2378 C.2      258 DG      0.0000
   1421 N2         2.0478    -1.6154   821.3735 N.pl3    258 DG      0.0000
   1422 N3         3.1357     0.3908   821.2421 N.2      258 DG      0.0000
   1423 C4         2.9112     1.7184   821.0914 C.ar     258 DG      0.0000
   1424 H5'        8.1975     5.5074   822.0167 H        258 DG      0.0000
   1425 H5''       7.4266     5.1073   823.5798 H        258 DG      0.0000
   1426 H4'        7.8451     2.9900   822.6208 H        258 DG      0.0000
   1427 H3'        7.7661     4.3124   820.1214 H        258 DG      0.0000
   1428 H2'        5.5594     3.9589   819.6170 H        258 DG      0.0000
   1429 H2''       6.1347     2.3173   819.1878 H        258 DG      0.0000
   1430 H1'        5.5265     1.4147   821.2565 H        258 DG      0.0000
   1431 H8         3.6971     4.8345   820.8309 H        258 DG      0.0000
   1432 H1        -0.0709    -0.3808   821.1178 H        258 DG      0.0000
   1433 H21        1.1994    -2.1634   821.3744 H        258 DG      0.0000
   1434 H22        2.9433    -2.0710   821.4753 H        258 DG      0.0000
   1435 P          8.5195     1.0735   819.4852 P.3      257 DA      0.0000
   1436 OP1        9.2680    -0.0138   820.2666 O.co2    257 DA      0.0000
   1437 OP2        9.2769     1.4595   818.2925 O.co2    257 DA      0.0000
   1438 O5'        6.9969     0.5209   819.3104 O.3      257 DA      0.0000
   1439 C5'        6.5794    -0.2974   820.4669 C.3      257 DA      0.0000
   1440 C4'        6.3164    -1.6861   819.9391 C.3      257 DA      0.0000
   1441 O4'        4.9501    -1.9269   819.7168 O.3      257 DA      0.0000
   1442 C3'        6.9998    -1.9533   818.5986 C.3      257 DA      0.0000
   1443 O3'        7.5566    -3.2438   818.5234 O.3      257 DA      0.0000
   1444 C2'        5.9122    -1.5945   817.6020 C.3      257 DA      0.0000
   1445 C1'        4.6037    -1.7484   818.3258 C.3      257 DA      0.0000
   1446 N9         3.7184    -0.5932   818.1003 N.ar     257 DA      0.0000
   1447 C8         4.0525     0.7308   817.9140 C.ar     257 DA      0.0000
   1448 N7         3.0260     1.5260   817.7181 N.ar     257 DA      0.0000
   1449 C5         1.9374     0.6671   817.8049 C.ar     257 DA      0.0000
   1450 C6         0.5471     0.9050   817.6993 C.ar     257 DA      0.0000
   1451 N6         0.0191     2.0975   817.4868 N.pl3    257 DA      0.0000
   1452 N1        -0.2581    -0.1861   817.8230 N.ar     257 DA      0.0000
   1453 C2         0.2596    -1.4299   818.0475 C.ar     257 DA      0.0000
   1454 N3         1.5539    -1.7202   818.1634 N.ar     257 DA      0.0000
   1455 C4         2.3440    -0.6279   818.0273 C.ar     257 DA      0.0000
   1456 H5'        7.3717    -0.3233   821.2149 H        257 DA      0.0000
   1457 H5''       5.6689     0.1130   820.9035 H        257 DA      0.0000
   1458 H4'        6.6832    -2.4100   820.6667 H        257 DA      0.0000
   1459 H3'        7.8091    -1.2320   818.4855 H        257 DA      0.0000
   1460 H2'        5.9499    -2.2671   816.7451 H        257 DA      0.0000
   1461 H2''       6.0357    -0.5632   817.2715 H        257 DA      0.0000
   1462 H1'        4.1061    -2.6496   817.9677 H        257 DA      0.0000
   1463 H8         5.0728     1.0847   817.9279 H        257 DA      0.0000
   1464 H2        -0.4402    -2.2473   818.1388 H        257 DA      0.0000
   1465 H61       -0.9145     2.3193   817.8022 H        257 DA      0.0000
   1466 H62        0.5584     2.7995   817.0006 H        257 DA      0.0000
   1467 P          7.6216    -4.2875   817.3388 P.3      256 DA      0.0000
   1468 OP1        8.1076    -5.6720   817.8587 O.co2    256 DA      0.0000
   1469 OP2        8.6496    -3.7307   816.4051 O.co2    256 DA      0.0000
   1470 O5'        6.1470    -4.5215   816.8361 O.3      256 DA      0.0000
   1471 C5'        5.4041    -5.6710   817.2919 C.3      256 DA      0.0000
   1472 C4'        4.0640    -5.6376   816.5900 C.3      256 DA      0.0000
   1473 O4'        3.5092    -4.3589   816.4693 O.3      256 DA      0.0000
   1474 C3'        4.0985    -6.2314   815.1825 C.3      256 DA      0.0000
   1475 O3'        3.3095    -7.4357   815.1510 O.3      256 DA      0.0000
   1476 C2'        3.6829    -5.0660   814.2829 C.3      256 DA      0.0000
   1477 C1'        2.8222    -4.2298   815.1807 C.3      256 DA      0.0000
   1478 N9         2.7624    -2.8030   814.8811 N.ar     256 DA      0.0000
   1479 C8         3.7938    -1.9077   814.6864 C.ar     256 DA      0.0000
   1480 N7         3.3926    -0.6731   814.4809 N.ar     256 DA      0.0000
   1481 C5         2.0154    -0.7485   814.5555 C.ar     256 DA      0.0000
   1482 C6         1.0082     0.2334   814.4220 C.ar     256 DA      0.0000
   1483 N6         1.2532     1.5173   814.1788 N.pl3    256 DA      0.0000
   1484 N1        -0.2766    -0.2239   814.5708 N.ar     256 DA      0.0000
   1485 C2        -0.5552    -1.5172   814.8233 C.ar     256 DA      0.0000
   1486 N3         0.3420    -2.4980   814.9622 N.ar     256 DA      0.0000
   1487 C4         1.6068    -2.0445   814.8150 C.ar     256 DA      0.0000
   1488 H5'        5.9375    -6.5867   817.0368 H        256 DA      0.0000
   1489 H5''       5.2590    -5.6148   818.3707 H        256 DA      0.0000
   1490 H4'        3.3721    -6.2385   817.1801 H        256 DA      0.0000
   1491 H3'        5.1302    -6.4930   814.9475 H        256 DA      0.0000
   1492 H2'        4.5535    -4.5051   813.9430 H        256 DA      0.0000
   1493 H2''       3.1066    -5.4283   813.4316 H        256 DA      0.0000
   1494 H1'        1.8174    -4.6480   815.2418 H        256 DA      0.0000
   1495 H8         4.8349    -2.1948   814.7013 H        256 DA      0.0000
   1496 H2        -1.5966    -1.7858   814.9224 H        256 DA      0.0000
   1497 H61        0.5299     2.1579   814.4728 H        256 DA      0.0000
   1498 H62        2.1031     1.8301   813.7315 H        256 DA      0.0000
   1499 P          3.1779    -8.2460   813.7661 P.3      255 DT      0.0000
   1500 OP1        2.6304    -9.6389   813.8242 O.co2    255 DT      0.0000
   1501 OP2        4.5773    -8.1284   813.2534 O.co2    255 DT      0.0000
   1502 O5'        1.9935    -7.3076   813.0629 O.3      255 DT      0.0000
   1503 C5'        0.9986    -6.9668   814.0752 C.3      255 DT      0.0000
   1504 C4'       -0.2858    -6.6209   813.3923 C.3      255 DT      0.0000
   1505 O4'       -0.4702    -5.2486   813.2119 O.3      255 DT      0.0000
   1506 C3'       -0.4629    -7.2756   812.0310 C.3      255 DT      0.0000
   1507 O3'       -1.8164    -7.6626   811.7637 O.3      255 DT      0.0000
   1508 C2'        0.0836    -6.1543   811.1377 C.3      255 DT      0.0000
   1509 C1'       -0.5287    -4.9268   811.7777 C.3      255 DT      0.0000
   1510 N1         0.3046    -3.7315   811.5477 N.am     255 DT      0.0000
   1511 C2        -0.3430    -2.5147   811.4261 C.2      255 DT      0.0000
   1512 O2        -1.5723    -2.4409   811.4629 O.2      255 DT      0.0000
   1513 N3         0.4234    -1.3934   811.2587 N.am     255 DT      0.0000
   1514 C4         1.7813    -1.4510   811.2102 C.2      255 DT      0.0000
   1515 O4         2.4096    -0.3662   811.0247 O.2      255 DT      0.0000
   1516 C5         2.4285    -2.7096   811.3586 C.2      255 DT      0.0000
   1517 C7         3.9343    -2.8120   811.3065 C.3      255 DT      0.0000
   1518 C6         1.6662    -3.7945   811.5316 C.2      255 DT      0.0000
   1519 H5'        0.8434    -7.8187   814.7373 H        255 DT      0.0000
   1520 H5''       1.3458    -6.1117   814.6553 H        255 DT      0.0000
   1521 H4'       -1.0963    -6.9750   814.0293 H        255 DT      0.0000
   1522 H3'        0.1865    -8.1480   811.9590 H        255 DT      0.0000
   1523 H2'        1.1725    -6.1171   811.1683 H        255 DT      0.0000
   1524 H2''      -0.2693    -6.2714   810.1131 H        255 DT      0.0000
   1525 H1'       -1.5545    -4.7703   811.4438 H        255 DT      0.0000
   1526 H3        -0.0328    -0.4968   811.1686 H        255 DT      0.0000
   1527 H6         2.1456    -4.7533   811.6630 H        255 DT      0.0000
   1528 H71        4.2450    -3.0967   810.3013 H        255 DT      0.0000
   1529 H72        4.2718    -3.5656   812.0181 H        255 DT      0.0000
   1530 H73        4.3731    -1.8478   811.5630 H        255 DT      0.0000
   1531 P         -2.0954    -8.2764   810.2738 P.3      254 DT      0.0000
   1532 OP1       -2.4869    -9.7479   810.4218 O.co2    254 DT      0.0000
   1533 OP2       -0.7550    -8.1750   809.6040 O.co2    254 DT      0.0000
   1534 O5'       -3.2204    -7.4328   809.6218 O.3      254 DT      0.0000
   1535 C5'       -4.2483    -6.7869   810.3732 C.3      254 DT      0.0000
   1536 C4'       -4.6789    -5.5661   809.6252 C.3      254 DT      0.0000
   1537 O4'       -3.8023    -4.4733   809.5682 O.3      254 DT      0.0000
   1538 C3'       -5.1272    -5.7501   808.1591 C.3      254 DT      0.0000
   1539 O3'       -6.1623    -4.7678   808.0554 O.3      254 DT      0.0000
   1540 C2'       -3.8621    -5.3370   807.3954 C.3      254 DT      0.0000
   1541 C1'       -3.5829    -4.0659   808.1711 C.3      254 DT      0.0000
   1542 N1        -2.2197    -3.5381   808.0650 N.am     254 DT      0.0000
   1543 C2        -2.1150    -2.1407   808.0643 C.2      254 DT      0.0000
   1544 O2        -3.1195    -1.4274   808.1074 O.2      254 DT      0.0000
   1545 N3        -0.8573    -1.6123   808.0109 N.am     254 DT      0.0000
   1546 C4         0.2653    -2.3835   807.9511 C.2      254 DT      0.0000
   1547 O4         1.3878    -1.7974   807.8887 O.2      254 DT      0.0000
   1548 C5         0.1302    -3.7986   807.9594 C.2      254 DT      0.0000
   1549 C7         1.3690    -4.6676   807.8980 C.3      254 DT      0.0000
   1550 C6        -1.1020    -4.3111   808.0259 C.2      254 DT      0.0000
   1551 H5'       -5.0952    -7.4621   810.4954 H        254 DT      0.0000
   1552 H5''      -3.8628    -6.5009   811.3518 H        254 DT      0.0000
   1553 H4'       -5.5603    -5.2012   810.1524 H        254 DT      0.0000
   1554 H3'       -5.4627    -6.7616   807.9304 H        254 DT      0.0000
   1555 H2'       -4.0562    -5.1466   806.3398 H        254 DT      0.0000
   1556 H2''      -3.0628    -6.0662   807.5270 H        254 DT      0.0000
   1557 H1'       -4.3018    -3.2955   807.8921 H        254 DT      0.0000
   1558 H3        -0.7542    -0.6076   808.0158 H        254 DT      0.0000
   1559 H6        -1.2148    -5.3850   808.0496 H        254 DT      0.0000
   1560 H71        2.2553    -4.0350   807.8491 H        254 DT      0.0000
   1561 H72        1.3252    -5.3002   807.0114 H        254 DT      0.0000
   1562 H73        1.4182    -5.2937   808.7889 H        254 DT      0.0000
   1563 P         -7.1999    -4.6261   806.9092 P.3      253 DC      0.0000
   1564 OP1       -8.5961    -4.4852   807.5183 O.co2    253 DC      0.0000
   1565 OP2       -7.1188    -5.8995   806.1273 O.co2    253 DC      0.0000
   1566 O5'       -6.6685    -3.2751   806.1698 O.3      253 DC      0.0000
   1567 C5'       -6.9341    -2.0294   806.8943 C.3      253 DC      0.0000
   1568 C4'       -7.1812    -0.9780   805.8437 C.3      253 DC      0.0000
   1569 O4'       -6.0396    -0.1901   805.5985 O.3      253 DC      0.0000
   1570 C3'       -7.6224    -1.5104   804.4793 C.3      253 DC      0.0000
   1571 O3'       -8.5242    -0.6580   803.7700 O.3      253 DC      0.0000
   1572 C2'       -6.2621    -1.6971   803.7932 C.3      253 DC      0.0000
   1573 C1'       -5.4538    -0.5220   804.3398 C.3      253 DC      0.0000
   1574 N1        -4.0416    -0.9549   804.4576 N.am     253 DC      0.0000
   1575 C2        -3.0713     0.0461   804.4748 C.2      253 DC      0.0000
   1576 O2        -3.3843     1.2426   804.4062 O.2      253 DC      0.0000
   1577 N3        -1.7651    -0.3494   804.5781 N.2      253 DC      0.0000
   1578 C4        -1.4103    -1.6591   804.6488 C.2      253 DC      0.0000
   1579 N4        -0.1224    -1.9948   804.7507 N.pl3    253 DC      0.0000
   1580 C5        -2.4205    -2.6608   804.6237 C.2      253 DC      0.0000
   1581 C6        -3.7034    -2.2714   804.5301 C.2      253 DC      0.0000
   1582 H5'       -7.8121    -2.1419   807.5302 H        253 DC      0.0000
   1583 H5''      -6.0684    -1.7571   807.4982 H        253 DC      0.0000
   1584 H4'       -7.9667    -0.3185   806.2125 H        253 DC      0.0000
   1585 H3'       -8.0886    -2.4863   804.6135 H        253 DC      0.0000
   1586 H2'       -6.3566    -1.6400   802.7088 H        253 DC      0.0000
   1587 H2''      -5.8102    -2.6439   804.0892 H        253 DC      0.0000
   1588 H1'       -5.5268     0.3273   803.6604 H        253 DC      0.0000
   1589 H5        -2.1626    -3.7082   804.6784 H        253 DC      0.0000
   1590 H6        -4.4827    -3.0190   804.5120 H        253 DC      0.0000
   1591 H41        0.5868    -1.2760   804.7714 H        253 DC      0.0000
   1592 H42        0.1429    -2.9677   804.8071 H        253 DC      0.0000
   1593 P         -8.5510    -0.4257   802.1380 P.3      252 DA      0.0000
   1594 OP1       -9.9342     0.0490   801.7485 O.co2    252 DA      0.0000
   1595 OP2       -8.1592    -1.7434   801.5680 O.co2    252 DA      0.0000
   1596 O5'       -7.5400     0.7986   801.9725 O.3      252 DA      0.0000
   1597 C5'       -7.9857     2.1315   802.4379 C.3      252 DA      0.0000
   1598 C4'       -7.1608     3.0578   801.5607 C.3      252 DA      0.0000
   1599 O4'       -5.7662     2.8632   801.8280 O.3      252 DA      0.0000
   1600 C3'       -7.3113     2.7699   800.0562 C.3      252 DA      0.0000
   1601 O3'       -6.8488     3.8544   799.2672 O.3      252 DA      0.0000
   1602 C2'       -6.2646     1.6563   799.8688 C.3      252 DA      0.0000
   1603 C1'       -5.1347     2.4088   800.6234 C.3      252 DA      0.0000
   1604 N9        -4.0714     1.4199   800.7689 N.ar     252 DA      0.0000
   1605 C8        -4.2282     0.0539   800.8417 C.ar     252 DA      0.0000
   1606 N7        -3.0960    -0.5938   800.9563 N.ar     252 DA      0.0000
   1607 C5        -2.1298     0.4281   800.9500 C.ar     252 DA      0.0000
   1608 C6        -0.7124     0.3712   801.0499 C.ar     252 DA      0.0000
   1609 N6        -0.0211    -0.7656   801.1727 N.pl3    252 DA      0.0000
   1610 N1        -0.0964     1.5858   801.0148 N.ar     252 DA      0.0000
   1611 C2        -0.7976     2.7399   800.8959 C.ar     252 DA      0.0000
   1612 N3        -2.1246     2.8660   800.8044 N.ar     252 DA      0.0000
   1613 C4        -2.7213     1.6615   800.8319 C.ar     252 DA      0.0000
   1614 H5'       -9.0534     2.2735   802.2712 H        252 DA      0.0000
   1615 H5''      -7.7376     2.2749   803.4896 H        252 DA      0.0000
   1616 H4'       -7.4321     4.0936   801.7646 H        252 DA      0.0000
   1617 H3'       -8.3183     2.4516   799.7866 H        252 DA      0.0000
   1618 H2'       -6.5479     0.7204   800.3504 H        252 DA      0.0000
   1619 H2''      -6.0175     1.5090   798.8174 H        252 DA      0.0000
   1620 H1'       -4.7856     3.2573   800.0350 H        252 DA      0.0000
   1621 H8        -5.1906    -0.4352   800.8077 H        252 DA      0.0000
   1622 H2        -0.2229     3.6539   800.8727 H        252 DA      0.0000
   1623 H61       -0.5059    -1.6513   801.1975 H        252 DA      0.0000
   1624 H62        0.9862    -0.7392   801.2409 H        252 DA      0.0000
   1625 P         -7.7619     4.4757   798.1263 P.3      251 DC      0.0000
   1626 OP1       -8.6377     5.4420   798.9066 O.co2    251 DC      0.0000
   1627 OP2       -8.5315     3.4589   797.4007 O.co2    251 DC      0.0000
   1628 O5'       -6.6171     5.1401   797.1504 O.3      251 DC      0.0000
   1629 C5'       -5.6491     6.0357   797.8194 C.3      251 DC      0.0000
   1630 C4'       -4.3008     5.8486   797.1754 C.3      251 DC      0.0000
   1631 O4'       -3.4922     4.8671   797.8125 O.3      251 DC      0.0000
   1632 C3'       -4.3959     5.4324   795.6976 C.3      251 DC      0.0000
   1633 O3'       -3.3431     5.9382   794.8863 O.3      251 DC      0.0000
   1634 C2'       -4.2160     3.8877   795.8632 C.3      251 DC      0.0000
   1635 C1'       -2.9335     4.0548   796.7588 C.3      251 DC      0.0000
   1636 N1        -2.4117     2.7345   796.9967 N.am     251 DC      0.0000
   1637 C2        -1.0696     2.6020   797.3138 C.2      251 DC      0.0000
   1638 O2        -0.2017     3.4710   797.4543 O.2      251 DC      0.0000
   1639 N3        -0.5787     1.3413   797.5121 N.2      251 DC      0.0000
   1640 C4        -1.3676     0.2300   797.3961 C.2      251 DC      0.0000
   1641 N4        -0.8438    -0.9867   797.6122 N.pl3    251 DC      0.0000
   1642 C5        -2.7428     0.3818   797.0664 C.2      251 DC      0.0000
   1643 C6        -3.1995     1.6249   796.8747 C.2      251 DC      0.0000
   1644 H5'       -5.9691     7.0717   797.7079 H        251 DC      0.0000
   1645 H5''      -5.5876     5.7833   798.8780 H        251 DC      0.0000
   1646 H4'       -3.7719     6.8006   797.2221 H        251 DC      0.0000
   1647 H3'       -5.3723     5.6758   795.2786 H        251 DC      0.0000
   1648 H2'       -5.0466     3.4073   796.3803 H        251 DC      0.0000
   1649 H2''      -3.9898     3.4001   794.9150 H        251 DC      0.0000
   1650 H1'       -2.1916     4.6386   796.2139 H        251 DC      0.0000
   1651 H5        -3.3944    -0.4746   796.9743 H        251 DC      0.0000
   1652 H6        -4.2385     1.7571   796.6115 H        251 DC      0.0000
   1653 H41        0.1326    -1.0807   797.8527 H        251 DC      0.0000
   1654 H42       -1.4260    -1.8083   797.5342 H        251 DC      0.0000
   1655 P          8.9034    -4.5948   831.4854 P.3      261 DG      0.0000
   1656 OP1        9.7397    -5.8204   831.4839 O.co2    261 DG      0.0000
   1657 OP2        7.8085    -4.8068   832.5411 O.co2    261 DG      0.0000
   1658 O5'        9.6616    -3.2074   831.6638 O.3      261 DG      0.0000
   1659 C5'       10.0054    -2.2250   830.6638 C.3      261 DG      0.0000
   1660 C4'        9.5560    -0.8674   831.1626 C.3      261 DG      0.0000
   1661 O4'        8.2451    -0.5553   830.7435 O.3      261 DG      0.0000
   1662 C3'        9.6062    -0.6084   832.6548 C.3      261 DG      0.0000
   1663 O3'       10.3719     0.5865   832.9668 O.3      261 DG      0.0000
   1664 C2'        8.1521    -0.5168   833.0767 C.3      261 DG      0.0000
   1665 C1'        7.4469    -0.0642   831.8211 C.3      261 DG      0.0000
   1666 N9         6.0736    -0.5993   831.7920 N.ar     261 DG      0.0000
   1667 C8         5.6320    -1.8811   832.0209 C.ar     261 DG      0.0000
   1668 N7         4.3290    -2.0239   831.9312 N.ar     261 DG      0.0000
   1669 C5         3.8769    -0.7456   831.6142 C.ar     261 DG      0.0000
   1670 C6         2.5752    -0.2339   831.3883 C.2      261 DG      0.0000
   1671 O6         1.5035    -0.8399   831.4095 O.2      261 DG      0.0000
   1672 N1         2.5160     1.1036   831.1068 N.am     261 DG      0.0000
   1673 C2         3.5653     1.8595   831.0461 C.2      261 DG      0.0000
   1674 N2         3.2361     3.0565   830.7493 N.pl3    261 DG      0.0000
   1675 N3         4.8861     1.4501   831.2548 N.2      261 DG      0.0000
   1676 C4         4.9361     0.1383   831.5274 C.ar     261 DG      0.0000
   1677 H5'       11.0838    -2.2214   830.5051 H        261 DG      0.0000
   1678 H5''       9.4973    -2.4594   829.7285 H        261 DG      0.0000
   1679 H4'       10.2136    -0.1328   830.6979 H        261 DG      0.0000
   1680 H3'       10.0663    -1.4643   833.1488 H        261 DG      0.0000
   1681 H2'        7.7798    -1.4876   833.4037 H        261 DG      0.0000
   1682 H2''       8.0316     0.2229   833.8682 H        261 DG      0.0000
   1683 H1'        7.4171     1.0249   831.7891 H        261 DG      0.0000
   1684 H8         6.2979    -2.6989   832.2540 H        261 DG      0.0000
   1685 H1         1.6117     1.5206   830.9384 H        261 DG      0.0000
   1686 H21        2.2646     3.2920   830.6050 H        261 DG      0.0000
   1687 H22        3.9471     3.7681   830.6589 H        261 DG      0.0000
   1688 P         10.3593     1.2585   834.3954 P.3      262 DT      0.0000
   1689 OP1       11.6830     1.7650   834.9070 O.co2    262 DT      0.0000
   1690 OP2       10.0126     0.0728   835.3140 O.co2    262 DT      0.0000
   1691 O5'        9.1948     2.2812   834.4239 O.3      262 DT      0.0000
   1692 C5'        9.3926     3.7146   834.2800 C.3      262 DT      0.0000
   1693 C4'        7.9971     4.3001   834.3375 C.3      262 DT      0.0000
   1694 O4'        7.0034     3.3374   834.0623 O.3      262 DT      0.0000
   1695 C3'        7.5811     4.9143   835.6502 C.3      262 DT      0.0000
   1696 O3'        7.3913     6.3243   835.4620 O.3      262 DT      0.0000
   1697 C2'        6.2775     4.2192   836.0424 C.3      262 DT      0.0000
   1698 C1'        5.7693     3.7930   834.6897 C.3      262 DT      0.0000
   1699 N1         4.8763     2.6382   834.7863 N.am     262 DT      0.0000
   1700 C2         3.5398     2.8566   834.5884 C.2      262 DT      0.0000
   1701 O2         3.0816     3.9717   834.3502 O.2      262 DT      0.0000
   1702 N3         2.7117     1.7696   834.6694 N.am     262 DT      0.0000
   1703 C4         3.1617     0.5203   834.9253 C.2      262 DT      0.0000
   1704 O4         2.2811    -0.3782   834.9706 O.2      262 DT      0.0000
   1705 C5         4.5640     0.3106   835.1250 C.2      262 DT      0.0000
   1706 C7         5.1024    -1.0548   835.4049 C.3      262 DT      0.0000
   1707 C6         5.3665     1.3795   835.0436 C.2      262 DT      0.0000
   1708 H5'       10.0061     4.1019   835.0934 H        262 DT      0.0000
   1709 H5''       9.8560     3.9371   833.3188 H        262 DT      0.0000
   1710 H4'        7.9301     5.0741   833.5729 H        262 DT      0.0000
   1711 H3'        8.3447     4.7357   836.4073 H        262 DT      0.0000
   1712 H2'        6.4590     3.3623   836.6912 H        262 DT      0.0000
   1713 H2''       5.5892     4.9221   836.5116 H        262 DT      0.0000
   1714 H1'        5.3132     4.6193   834.1444 H        262 DT      0.0000
   1715 H3         1.7206     1.9068   834.5320 H        262 DT      0.0000
   1716 H6         6.4295     1.2493   835.1839 H        262 DT      0.0000
   1717 H71        5.5532    -1.4609   834.4994 H        262 DT      0.0000
   1718 H72        4.2906    -1.7056   835.7297 H        262 DT      0.0000
   1719 H73        5.8559    -0.9943   836.1903 H        262 DT      0.0000
   1720 P          7.8689     7.2073   836.7419 P.3      263 DG      0.0000
   1721 OP1        8.4391     8.4256   836.0269 O.co2    263 DG      0.0000
   1722 OP2        8.8523     6.4501   837.4955 O.co2    263 DG      0.0000
   1723 O5'        6.3717     7.4340   837.3515 O.3      263 DG      0.0000
   1724 C5'        5.4531     7.8214   836.2609 C.3      263 DG      0.0000
   1725 C4'        4.0514     7.6956   836.7809 C.3      263 DG      0.0000
   1726 O4'        3.4252     6.4535   836.6003 O.3      263 DG      0.0000
   1727 C3'        3.9472     8.0309   838.2889 C.3      263 DG      0.0000
   1728 O3'        2.9376     9.0569   838.4478 O.3      263 DG      0.0000
   1729 C2'        3.6585     6.6957   838.9415 C.3      263 DG      0.0000
   1730 C1'        2.8489     5.9900   837.8600 C.3      263 DG      0.0000
   1731 N9         2.8868     4.5332   838.0295 N.ar     263 DG      0.0000
   1732 C8         3.9476     3.7382   838.3657 C.ar     263 DG      0.0000
   1733 N7         3.6667     2.4566   838.4514 N.ar     263 DG      0.0000
   1734 C5         2.3141     2.4111   838.1214 C.ar     263 DG      0.0000
   1735 C6         1.4148     1.3107   838.0271 C.2      263 DG      0.0000
   1736 O6         1.6521     0.1088   838.2194 O.2      263 DG      0.0000
   1737 N1         0.1258     1.6568   837.6920 N.am     263 DG      0.0000
   1738 C2        -0.2382     2.9496   837.4683 C.2      263 DG      0.0000
   1739 N2        -1.5329     3.0994   837.1595 N.pl3    263 DG      0.0000
   1740 N3         0.5638     4.0096   837.5393 N.2      263 DG      0.0000
   1741 C4         1.8236     3.6737   837.8659 C.ar     263 DG      0.0000
   1742 H5'        5.6467     8.8511   835.9604 H        263 DG      0.0000
   1743 H5''       5.5913     7.1562   835.4085 H        263 DG      0.0000
   1744 H4'        3.4496     8.4334   836.2503 H        263 DG      0.0000
   1745 H3'        4.9064     8.4080   838.6437 H        263 DG      0.0000
   1746 H2'        4.5787     6.1557   839.1645 H        263 DG      0.0000
   1747 H2''       3.0619     6.8291   839.8439 H        263 DG      0.0000
   1748 H1'        1.8135     6.3254   837.9189 H        263 DG      0.0000
   1749 H8         4.9371     4.1317   838.5463 H        263 DG      0.0000
   1750 H1        -0.5711     0.9303   837.6097 H        263 DG      0.0000
   1751 H21       -2.1369     2.2915   837.1092 H        263 DG      0.0000
   1752 H22       -1.9052     4.0204   836.9768 H        263 DG      0.0000
   1753 P          2.6525     9.7163   839.8362 P.3      264 DA      0.0000
   1754 OP1        3.4651    10.9190   840.1916 O.co2    264 DA      0.0000
   1755 OP2        3.1532     8.5243   840.7320 O.co2    264 DA      0.0000
   1756 O5'        1.0867     9.7493   840.0853 O.3      264 DA      0.0000
   1757 C5'        0.0872     9.7073   839.0563 C.3      264 DA      0.0000
   1758 C4'       -0.9337     8.6857   839.5306 C.3      264 DA      0.0000
   1759 O4'       -0.4023     7.3812   839.4402 O.3      264 DA      0.0000
   1760 C3'       -1.4489     8.8574   840.9597 C.3      264 DA      0.0000
   1761 O3'       -2.8868     8.7534   841.0119 O.3      264 DA      0.0000
   1762 C2'       -0.7385     7.7145   841.6951 C.3      264 DA      0.0000
   1763 C1'       -0.8221     6.6441   840.6175 C.3      264 DA      0.0000
   1764 N9         0.0716     5.5042   840.8459 N.ar     264 DA      0.0000
   1765 C8         1.4202     5.4752   841.0617 C.ar     264 DA      0.0000
   1766 N7         1.9074     4.2656   841.2266 N.ar     264 DA      0.0000
   1767 C5         0.8021     3.4399   841.0864 C.ar     264 DA      0.0000
   1768 C6         0.6717     2.0347   841.1344 C.ar     264 DA      0.0000
   1769 N6         1.6819     1.1898   841.3542 N.pl3    264 DA      0.0000
   1770 N1        -0.5954     1.5604   840.9446 N.ar     264 DA      0.0000
   1771 C2        -1.6343     2.3996   840.7269 C.ar     264 DA      0.0000
   1772 N3        -1.5867     3.7299   840.6686 N.ar     264 DA      0.0000
   1773 C4        -0.3323     4.1791   840.8554 C.ar     264 DA      0.0000
   1774 H5'        0.5274     9.3955   838.1091 H        264 DA      0.0000
   1775 H5''      -0.3822    10.6852   838.9485 H        264 DA      0.0000
   1776 H4'       -1.7920     8.7404   838.8608 H        264 DA      0.0000
   1777 H3'       -1.1276     9.8186   841.3611 H        264 DA      0.0000
   1778 H2'        0.2932     7.9665   841.9406 H        264 DA      0.0000
   1779 H2''      -1.2920     7.4179   842.5860 H        264 DA      0.0000
   1780 H1'       -1.8506     6.3018   840.5030 H        264 DA      0.0000
   1781 H8         2.0307     6.3655   841.0938 H        264 DA      0.0000
   1782 H2        -2.6031     1.9435   840.5855 H        264 DA      0.0000
   1783 H61        2.6606     1.4200   841.2568 H        264 DA      0.0000
   1784 H62        1.5299     0.2062   841.1827 H        264 DA      0.0000
   1785 P         -3.7828     9.5231   842.1534 P.3      265 DA      0.0000
   1786 OP1       -4.7213    10.4976   841.4863 O.co2    265 DA      0.0000
   1787 OP2       -2.7238    10.1314   842.9843 O.co2    265 DA      0.0000
   1788 O5'       -4.7367     8.3598   842.6842 O.3      265 DA      0.0000
   1789 C5'       -5.6761     7.6719   841.8599 C.3      265 DA      0.0000
   1790 C4'       -5.8116     6.2523   842.3822 C.3      265 DA      0.0000
   1791 O4'       -4.5729     5.6014   842.4104 O.3      265 DA      0.0000
   1792 C3'       -6.4466     6.0672   843.7495 C.3      265 DA      0.0000
   1793 O3'       -7.6708     5.3373   843.6717 O.3      265 DA      0.0000
   1794 C2'       -5.3416     5.4005   844.5782 C.3      265 DA      0.0000
   1795 C1'       -4.4735     4.7319   843.5844 C.3      265 DA      0.0000
   1796 N9        -3.0353     4.5501   843.8525 N.ar     265 DA      0.0000
   1797 C8        -2.0333     5.4829   843.9677 C.ar     265 DA      0.0000
   1798 N7        -0.8382     4.9688   844.1370 N.ar     265 DA      0.0000
   1799 C5        -1.0596     3.5959   844.1000 C.ar     265 DA      0.0000
   1800 C6        -0.1716     2.4891   844.2204 C.ar     265 DA      0.0000
   1801 N6         1.1391     2.5706   844.4121 N.pl3    265 DA      0.0000
   1802 N1        -0.7525     1.2496   844.1223 N.ar     265 DA      0.0000
   1803 C2        -2.0984     1.1259   843.9332 C.ar     265 DA      0.0000
   1804 N3        -2.9807     2.1127   843.8253 N.ar     265 DA      0.0000
   1805 C4        -2.3956     3.3238   843.9172 C.ar     265 DA      0.0000
   1806 H5'       -5.3199     7.6539   840.8298 H        265 DA      0.0000
   1807 H5''      -6.6424     8.1741   841.9058 H        265 DA      0.0000
   1808 H4'       -6.4351     5.7125   841.6695 H        265 DA      0.0000
   1809 H3'       -6.6539     7.0500   844.1727 H        265 DA      0.0000
   1810 H2'       -4.7789     6.1472   845.1385 H        265 DA      0.0000
   1811 H2''      -5.7721     4.6651   845.2578 H        265 DA      0.0000
   1812 H1'       -4.9074     3.7627   843.3384 H        265 DA      0.0000
   1813 H8        -2.2137     6.5468   843.9228 H        265 DA      0.0000
   1814 H2        -2.4865     0.1204   843.8640 H        265 DA      0.0000
   1815 H61        1.5846     3.4164   844.7383 H        265 DA      0.0000
   1816 H62        1.7107     1.7591   844.2253 H        265 DA      0.0000
   1817 P         -8.9670     5.5608   844.6279 P.3      266 DT      0.0000
   1818 OP1      -10.2654     5.5112   843.8306 O.co2    266 DT      0.0000
   1819 OP2       -8.7997     6.7419   845.4485 O.co2    266 DT      0.0000
   1820 O5'       -9.0260     4.1327   845.4416 O.3      266 DT      0.0000
   1821 C5'       -8.7151     3.0215   844.4965 C.3      266 DT      0.0000
   1822 C4'       -7.8164     2.1023   845.2842 C.3      266 DT      0.0000
   1823 O4'       -6.5152     2.6100   845.4762 O.3      266 DT      0.0000
   1824 C3'       -8.3570     1.8332   846.7008 C.3      266 DT      0.0000
   1825 O3'       -9.0479     0.5977   846.7025 O.3      266 DT      0.0000
   1826 C2'       -7.1227     1.8796   847.5981 C.3      266 DT      0.0000
   1827 C1'       -6.0067     1.8136   846.6335 C.3      266 DT      0.0000
   1828 N1        -4.7020     2.3587   846.9732 N.am     266 DT      0.0000
   1829 C2        -3.6577     1.4497   847.1112 C.2      266 DT      0.0000
   1830 O2        -3.8801     0.2490   847.0231 O.2      266 DT      0.0000
   1831 N3        -2.4105     1.9353   847.3651 N.am     266 DT      0.0000
   1832 C4        -2.1490     3.2702   847.4853 C.2      266 DT      0.0000
   1833 O4        -0.9598     3.6438   847.7405 O.2      266 DT      0.0000
   1834 C5        -3.2363     4.1889   847.3137 C.2      266 DT      0.0000
   1835 C7        -2.9981     5.6710   847.4012 C.3      266 DT      0.0000
   1836 C6        -4.4639     3.7049   847.0579 C.2      266 DT      0.0000
   1837 H5'       -9.6264     2.5050   844.1949 H        266 DT      0.0000
   1838 H5''      -8.1903     3.4049   843.6215 H        266 DT      0.0000
   1839 H4'       -7.7431     1.1521   844.7551 H        266 DT      0.0000
   1840 H3'       -9.0419     2.6320   846.9852 H        266 DT      0.0000
   1841 H2'       -7.0902     2.8060   848.1715 H        266 DT      0.0000
   1842 H2''      -7.1026     1.0173   848.2645 H        266 DT      0.0000
   1843 H1'       -5.8805     0.7785   846.3161 H        266 DT      0.0000
   1844 H3        -1.6480     1.2811   847.4688 H        266 DT      0.0000
   1845 H6        -5.2829     4.3945   846.9158 H        266 DT      0.0000
   1846 H71       -1.9457     5.8583   847.6143 H        266 DT      0.0000
   1847 H72       -3.2655     6.1382   846.4534 H        266 DT      0.0000
   1848 H73       -3.6107     6.0910   848.1990 H        266 DT      0.0000
   1849 P         -9.9446    -0.0195   847.8091 P.3      267 DT      0.0000
   1850 OP1      -10.9206    -1.0574   847.1970 O.co2    267 DT      0.0000
   1851 OP2      -10.6691     1.1143   848.4391 O.co2    267 DT      0.0000
   1852 O5'       -8.9408    -0.9058   848.6914 O.3      267 DT      0.0000
   1853 C5'       -8.4683    -2.0809   847.9797 C.3      267 DT      0.0000
   1854 C4'       -7.2419    -2.5878   848.6558 C.3      267 DT      0.0000
   1855 O4'       -6.1534    -1.6729   848.6325 O.3      267 DT      0.0000
   1856 C3'       -7.4479    -2.9930   850.1225 C.3      267 DT      0.0000
   1857 O3'       -6.7955    -4.2206   850.3865 O.3      267 DT      0.0000
   1858 C2'       -6.7191    -1.8439   850.8588 C.3      267 DT      0.0000
   1859 C1'       -5.5053    -1.7674   849.9552 C.3      267 DT      0.0000
   1860 N1        -4.7055    -0.5936   850.2529 N.am     267 DT      0.0000
   1861 C2        -3.3278    -0.7291   850.3077 C.2      267 DT      0.0000
   1862 O2        -2.8301    -1.8401   850.1193 O.2      267 DT      0.0000
   1863 N3        -2.5791     0.3826   850.5737 N.am     267 DT      0.0000
   1864 C4        -3.1424     1.6043   850.7807 C.2      267 DT      0.0000
   1865 O4        -2.3847     2.5914   851.0040 O.2      267 DT      0.0000
   1866 C5        -4.5605     1.7328   850.7156 C.2      267 DT      0.0000
   1867 C7        -5.2556     3.0464   850.9255 C.3      267 DT      0.0000
   1868 C6        -5.2805     0.6307   850.4545 C.2      267 DT      0.0000
   1869 H5'       -9.2389    -2.8517   847.9921 H        267 DT      0.0000
   1870 H5''      -8.2340    -1.8147   846.9490 H        267 DT      0.0000
   1871 H4'       -6.9234    -3.4804   848.1173 H        267 DT      0.0000
   1872 H3'       -8.5051    -3.0337   850.3849 H        267 DT      0.0000
   1873 H2'       -7.2959    -0.9190   850.8575 H        267 DT      0.0000
   1874 H2''      -6.4412    -2.1358   851.8715 H        267 DT      0.0000
   1875 H1'       -4.9066    -2.6751   850.0308 H        267 DT      0.0000
   1876 H3        -1.5739     0.2948   850.6181 H        267 DT      0.0000
   1877 H6        -6.3560     0.7140   850.4014 H        267 DT      0.0000
   1878 H71       -4.5158     3.8218   851.1244 H        267 DT      0.0000
   1879 H72       -5.8209     3.3051   850.0302 H        267 DT      0.0000
   1880 H73       -5.9352     2.9664   851.7739 H        267 DT      0.0000
   1881 P          8.5610     0.6658   852.6703 P.3      267 DA      0.0000
   1882 OP1        9.2568    -0.4560   853.4516 O.co2    267 DA      0.0000
   1883 OP2        9.3360     1.0153   851.4776 O.co2    267 DA      0.0000
   1884 O5'        7.0138     0.1865   852.4955 O.3      267 DA      0.0000
   1885 C5'        6.5577    -0.6110   853.6519 C.3      267 DA      0.0000
   1886 C4'        6.2288    -1.9855   853.1241 C.3      267 DA      0.0000
   1887 O4'        4.8525    -2.1609   852.9018 O.3      267 DA      0.0000
   1888 C3'        6.8986    -2.2850   851.7836 C.3      267 DA      0.0000
   1889 O3'        7.3932    -3.6007   851.7084 O.3      267 DA      0.0000
   1890 C2'        5.8293    -1.8748   850.7870 C.3      267 DA      0.0000
   1891 C1'        4.5151    -1.9661   851.5109 C.3      267 DA      0.0000
   1892 N9         3.6858    -0.7699   851.2854 N.ar     267 DA      0.0000
   1893 C8         4.0827     0.5366   851.0990 C.ar     267 DA      0.0000
   1894 N7         3.0953     1.3799   850.9031 N.ar     267 DA      0.0000
   1895 C5         1.9670     0.5739   850.9900 C.ar     267 DA      0.0000
   1896 C6         0.5897     0.8779   850.8843 C.ar     267 DA      0.0000
   1897 N6         0.1191     2.0942   850.6719 N.pl3    267 DA      0.0000
   1898 N1        -0.2667    -0.1736   851.0081 N.ar     267 DA      0.0000
   1899 C2         0.1911    -1.4407   851.2326 C.ar     267 DA      0.0000
   1900 N3         1.4700    -1.7924   851.3485 N.ar     267 DA      0.0000
   1901 C4         2.3114    -0.7391   851.2123 C.ar     267 DA      0.0000
   1902 H5'        7.3479    -0.6746   854.4000 H        267 DA      0.0000
   1903 H5''       5.6678    -0.1576   854.0886 H        267 DA      0.0000
   1904 H4'        6.5607    -2.7261   853.8518 H        267 DA      0.0000
   1905 H3'        7.7415    -1.6031   851.6705 H        267 DA      0.0000
   1906 H2'        5.8349    -2.5484   849.9302 H        267 DA      0.0000
   1907 H2''       6.0019    -0.8506   850.4565 H        267 DA      0.0000
   1908 H1'        3.9751    -2.8425   851.1527 H        267 DA      0.0000
   1909 H8         5.1188     0.8414   851.1129 H        267 DA      0.0000
   1910 H2        -0.5470    -2.2238   851.3238 H        267 DA      0.0000
   1911 H61       -0.8028     2.3603   850.9873 H        267 DA      0.0000
   1912 H62        0.6913     2.7697   850.1856 H        267 DA      0.0000
   1913 P          7.4084    -4.6463   850.5238 P.3      266 DA      0.0000
   1914 OP1        7.8278    -6.0523   851.0437 O.co2    266 DA      0.0000
   1915 OP2        8.4618    -4.1392   849.5901 O.co2    266 DA      0.0000
   1916 O5'        5.9243    -4.8096   850.0211 O.3      266 DA      0.0000
   1917 C5'        5.1274    -5.9224   850.4770 C.3      266 DA      0.0000
   1918 C4'        3.7904    -5.8251   849.7750 C.3      266 DA      0.0000
   1919 O4'        3.2972    -4.5213   849.6543 O.3      266 DA      0.0000
   1920 C3'        3.7965    -6.4199   848.3675 C.3      266 DA      0.0000
   1921 O3'        2.9510    -7.5852   848.3361 O.3      266 DA      0.0000
   1922 C2'        3.4370    -5.2359   847.4680 C.3      266 DA      0.0000
   1923 C1'        2.6171    -4.3597   848.3657 C.3      266 DA      0.0000
   1924 N9         2.6256    -2.9316   848.0661 N.ar     266 DA      0.0000
   1925 C8         3.6985    -2.0865   847.8714 C.ar     266 DA      0.0000
   1926 N7         3.3566    -0.8341   847.6660 N.ar     266 DA      0.0000
   1927 C5         1.9774    -0.8438   847.7405 C.ar     266 DA      0.0000
   1928 C6         1.0182     0.1850   847.6070 C.ar     266 DA      0.0000
   1929 N6         1.3242     1.4558   847.3638 N.pl3    266 DA      0.0000
   1930 N1        -0.2870    -0.2104   847.7558 N.ar     266 DA      0.0000
   1931 C2        -0.6270    -1.4890   848.0084 C.ar     266 DA      0.0000
   1932 N3         0.2224    -2.5115   848.1472 N.ar     266 DA      0.0000
   1933 C4         1.5074    -2.1188   848.0000 C.ar     266 DA      0.0000
   1934 H5'        5.6165    -6.8625   850.2218 H        266 DA      0.0000
   1935 H5''       4.9851    -5.8593   851.5558 H        266 DA      0.0000
   1936 H4'        3.0706    -6.3923   850.3652 H        266 DA      0.0000
   1937 H3'        4.8146    -6.7304   848.1325 H        266 DA      0.0000
   1938 H2'        4.3334    -4.7172   847.1281 H        266 DA      0.0000
   1939 H2''       2.8441    -5.5704   846.6166 H        266 DA      0.0000
   1940 H1'        1.5935    -4.7294   848.4268 H        266 DA      0.0000
   1941 H8         4.7246    -2.4230   847.8864 H        266 DA      0.0000
   1942 H2        -1.6800    -1.7075   848.1074 H        266 DA      0.0000
   1943 H61        0.6322     2.1302   847.6578 H        266 DA      0.0000
   1944 H62        2.1880     1.7277   846.9165 H        266 DA      0.0000
   1945 P          2.7809    -8.3882   846.9511 P.3      265 DT      0.0000
   1946 OP1        2.1675    -9.7534   847.0092 O.co2    265 DT      0.0000
   1947 OP2        4.1842    -8.3375   846.4385 O.co2    265 DT      0.0000
   1948 O5'        1.6426    -7.3944   846.2480 O.3      265 DT      0.0000
   1949 C5'        0.6651    -7.0065   847.2603 C.3      265 DT      0.0000
   1950 C4'       -0.6014    -6.5997   846.5773 C.3      265 DT      0.0000
   1951 O4'       -0.7201    -5.2202   846.3969 O.3      265 DT      0.0000
   1952 C3'       -0.8095    -7.2452   845.2161 C.3      265 DT      0.0000
   1953 O3'       -2.1799    -7.5672   844.9488 O.3      265 DT      0.0000
   1954 C2'       -0.2102    -6.1513   844.3227 C.3      265 DT      0.0000
   1955 C1'       -0.7631    -4.8959   844.9628 C.3      265 DT      0.0000
   1956 N1         0.1262    -3.7418   844.7328 N.am     265 DT      0.0000
   1957 C2        -0.4626    -2.4955   844.6112 C.2      265 DT      0.0000
   1958 O2        -1.6870    -2.3631   844.6479 O.2      265 DT      0.0000
   1959 N3         0.3564    -1.4120   844.4438 N.am     265 DT      0.0000
   1960 C4         1.7101    -1.5343   844.3952 C.2      265 DT      0.0000
   1961 O4         2.3894    -0.4808   844.2097 O.2      265 DT      0.0000
   1962 C5         2.2964    -2.8224   844.5436 C.2      265 DT      0.0000
   1963 C7         3.7957    -2.9965   844.4915 C.3      265 DT      0.0000
   1964 C6         1.4832    -3.8697   844.7166 C.2      265 DT      0.0000
   1965 H5'        0.4694    -7.8500   847.9224 H        265 DT      0.0000
   1966 H5''       1.0527    -6.1690   847.8403 H        265 DT      0.0000
   1967 H4'       -1.4278    -6.9148   847.2144 H        265 DT      0.0000
   1968 H3'       -0.2024    -8.1476   845.1441 H        265 DT      0.0000
   1969 H2'        0.8793    -6.1660   844.3533 H        265 DT      0.0000
   1970 H2''      -0.5682    -6.2514   843.2981 H        265 DT      0.0000
   1971 H1'       -1.7803    -4.6907   844.6288 H        265 DT      0.0000
   1972 H3        -0.0565    -0.4946   844.3536 H        265 DT      0.0000
   1973 H6         1.9164    -4.8503   844.8480 H        265 DT      0.0000
   1974 H71        4.0925    -3.2958   843.4863 H        265 DT      0.0000
   1975 H72        4.0968    -3.7653   845.2031 H        265 DT      0.0000
   1976 H73        4.2799    -2.0543   844.7480 H        265 DT      0.0000
   1977 P         -2.4879    -8.1670   843.4589 P.3      264 DT      0.0000
   1978 OP1       -2.9492    -9.6181   843.6069 O.co2    264 DT      0.0000
   1979 OP2       -1.1442    -8.1296   842.7890 O.co2    264 DT      0.0000
   1980 O5'       -3.5714    -7.2707   842.8068 O.3      264 DT      0.0000
   1981 C5'       -4.5672    -6.5765   843.5582 C.3      264 DT      0.0000
   1982 C4'       -4.9391    -5.3365   842.8102 C.3      264 DT      0.0000
   1983 O4'       -4.0114    -4.2868   842.7532 O.3      264 DT      0.0000
   1984 C3'       -5.3957    -5.4989   841.3442 C.3      264 DT      0.0000
   1985 O3'       -6.3828    -4.4683   841.2404 O.3      264 DT      0.0000
   1986 C2'       -4.1123    -5.1466   840.5804 C.3      264 DT      0.0000
   1987 C1'       -3.7729    -3.8904   841.3562 C.3      264 DT      0.0000
   1988 N1        -2.3860    -3.4282   841.2500 N.am     264 DT      0.0000
   1989 C2        -2.2147    -2.0374   841.2494 C.2      264 DT      0.0000
   1990 O2        -3.1841    -1.2769   841.2924 O.2      264 DT      0.0000
   1991 N3        -0.9332    -1.5696   841.1959 N.am     264 DT      0.0000
   1992 C4         0.1513    -2.3935   841.1362 C.2      264 DT      0.0000
   1993 O4         1.3004    -1.8616   841.0738 O.2      264 DT      0.0000
   1994 C5        -0.0511    -3.8005   841.1444 C.2      264 DT      0.0000
   1995 C7         1.1448    -4.7276   841.0830 C.3      264 DT      0.0000
   1996 C6        -1.3064    -4.2537   841.2109 C.2      264 DT      0.0000
   1997 H5'       -5.4454    -7.2105   843.6804 H        264 DT      0.0000
   1998 H5''      -4.1685    -6.3092   844.5368 H        264 DT      0.0000
   1999 H4'       -5.8021    -4.9300   843.3375 H        264 DT      0.0000
   2000 H3'       -5.7791    -6.4933   841.1155 H        264 DT      0.0000
   2001 H2'       -4.2972    -4.9472   839.5249 H        264 DT      0.0000
   2002 H2''      -3.3488    -5.9132   840.7120 H        264 DT      0.0000
   2003 H1'       -4.4541    -3.0865   841.0771 H        264 DT      0.0000
   2004 H3        -0.7823    -0.5709   841.2008 H        264 DT      0.0000
   2005 H6        -1.4703    -5.3209   841.2346 H        264 DT      0.0000
   2006 H71        2.0602    -4.1380   841.0342 H        264 DT      0.0000
   2007 H72        1.0708    -5.3574   840.1964 H        264 DT      0.0000
   2008 H73        1.1640    -5.3553   841.9739 H        264 DT      0.0000
   2009 P         -7.4124    -4.2773   840.0942 P.3      263 DC      0.0000
   2010 OP1       -8.8003    -4.0699   840.7033 O.co2    263 DC      0.0000
   2011 OP2       -7.3921    -5.5531   839.3123 O.co2    263 DC      0.0000
   2012 O5'       -6.8171    -2.9532   839.3548 O.3      263 DC      0.0000
   2013 C5'       -7.0230    -1.6962   840.0793 C.3      263 DC      0.0000
   2014 C4'       -7.2197    -0.6343   839.0288 C.3      263 DC      0.0000
   2015 O4'       -6.0418     0.0983   838.7835 O.3      263 DC      0.0000
   2016 C3'       -7.6857    -1.1450   837.6643 C.3      263 DC      0.0000
   2017 O3'       -8.5459    -0.2506   836.9551 O.3      263 DC      0.0000
   2018 C2'       -6.3360    -1.3964   836.9782 C.3      263 DC      0.0000
   2019 C1'       -5.4725    -0.2612   837.5248 C.3      263 DC      0.0000
   2020 N1        -4.0825    -0.7610   837.6426 N.am     263 DC      0.0000
   2021 C2        -3.0656     0.1926   837.6599 C.2      263 DC      0.0000
   2022 O2        -3.3212     1.4027   837.5912 O.2      263 DC      0.0000
   2023 N3        -1.7797    -0.2648   837.7631 N.2      263 DC      0.0000
   2024 C4        -1.4879    -1.5899   837.8338 C.2      263 DC      0.0000
   2025 N4        -0.2175    -1.9867   837.9358 N.pl3    263 DC      0.0000
   2026 C5        -2.5446    -2.5423   837.8087 C.2      263 DC      0.0000
   2027 C6        -3.8076    -2.0921   837.7151 C.2      263 DC      0.0000
   2028 H5'       -7.9054    -1.7668   840.7153 H        263 DC      0.0000
   2029 H5''      -6.1453    -1.4656   840.6832 H        263 DC      0.0000
   2030 H4'       -7.9729     0.0619   839.3975 H        263 DC      0.0000
   2031 H3'       -8.1981    -2.0976   837.7985 H        263 DC      0.0000
   2032 H2'       -6.4277    -1.3348   835.8938 H        263 DC      0.0000
   2033 H2''      -5.9298    -2.3637   837.2742 H        263 DC      0.0000
   2034 H1'       -5.5049     0.5906   836.8454 H        263 DC      0.0000
   2035 H5        -2.3371    -3.6008   837.8635 H        263 DC      0.0000
   2036 H6        -4.6216    -2.8017   837.6970 H        263 DC      0.0000
   2037 H41        0.5252    -1.3025   837.9565 H        263 DC      0.0000
   2038 H42        0.0011    -2.9712   837.9921 H        263 DC      0.0000
   2039 P         -8.5615    -0.0173   835.3231 P.3      262 DA      0.0000
   2040 OP1       -9.9206     0.5229   834.9336 O.co2    262 DA      0.0000
   2041 OP2       -8.2331    -1.3521   834.7530 O.co2    262 DA      0.0000
   2042 O5'       -7.4933     1.1574   835.1575 O.3      262 DA      0.0000
   2043 C5'       -7.8749     2.5101   835.6230 C.3      262 DA      0.0000
   2044 C4'       -7.0068     3.3960   834.7457 C.3      262 DA      0.0000
   2045 O4'       -5.6230     3.1350   835.0130 O.3      262 DA      0.0000
   2046 C3'       -7.1708     3.1155   833.2413 C.3      262 DA      0.0000
   2047 O3'       -6.6571     4.1767   832.4522 O.3      262 DA      0.0000
   2048 C2'       -6.1784     1.9533   833.0538 C.3      262 DA      0.0000
   2049 C1'       -5.0139     2.6510   833.8085 C.3      262 DA      0.0000
   2050 N9        -3.9990     1.6126   833.9539 N.ar     262 DA      0.0000
   2051 C8        -4.2209     0.2556   834.0267 C.ar     262 DA      0.0000
   2052 N7        -3.1208    -0.4454   834.1414 N.ar     262 DA      0.0000
   2053 C5        -2.1069     0.5292   834.1350 C.ar     262 DA      0.0000
   2054 C6        -0.6939     0.4047   834.2349 C.ar     262 DA      0.0000
   2055 N6        -0.0576    -0.7637   834.3578 N.pl3    262 DA      0.0000
   2056 N1        -0.0207     1.5886   834.1998 N.ar     262 DA      0.0000
   2057 C2        -0.6660     2.7748   834.0809 C.ar     262 DA      0.0000
   2058 N3        -1.9855     2.9641   833.9894 N.ar     262 DA      0.0000
   2059 C4        -2.6390     1.7894   834.0170 C.ar     262 DA      0.0000
   2060 H5'       -8.9346     2.7029   835.4562 H        262 DA      0.0000
   2061 H5''      -7.6202     2.6415   836.6746 H        262 DA      0.0000
   2062 H4'       -7.2283     4.4435   834.9496 H        262 DA      0.0000
   2063 H3'       -8.1919     2.8457   832.9716 H        262 DA      0.0000
   2064 H2'       -6.5061     1.0320   833.5354 H        262 DA      0.0000
   2065 H2''      -5.9387     1.7944   832.0024 H        262 DA      0.0000
   2066 H1'       -4.6247     3.4819   833.2200 H        262 DA      0.0000
   2067 H8        -5.2054    -0.1871   833.9927 H        262 DA      0.0000
   2068 H2        -0.0483     3.6603   834.0577 H        262 DA      0.0000
   2069 H61       -0.5841    -1.6253   834.3825 H        262 DA      0.0000
   2070 H62        0.9498    -0.7854   834.4259 H        262 DA      0.0000
   2071 P         -7.5396     4.8409   831.3113 P.3      261 DC      0.0000
   2072 OP1       -8.3682     5.8479   832.0916 O.co2    261 DC      0.0000
   2073 OP2       -8.3568     3.8620   830.5857 O.co2    261 DC      0.0000
   2074 O5'       -6.3643     5.4499   830.3354 O.3      261 DC      0.0000
   2075 C5'       -5.3547     6.2984   831.0045 C.3      261 DC      0.0000
   2076 C4'       -4.0169     6.0472   830.3604 C.3      261 DC      0.0000
   2077 O4'       -3.2560     5.0282   830.9976 O.3      261 DC      0.0000
   2078 C3'       -4.1317     5.6359   828.8826 C.3      261 DC      0.0000
   2079 O3'       -3.0560     6.0910   828.0713 O.3      261 DC      0.0000
   2080 C2'       -4.0257     4.0845   829.0483 C.3      261 DC      0.0000
   2081 C1'       -2.7367     4.1902   829.9438 C.3      261 DC      0.0000
   2082 N1        -2.2785     2.8464   830.1817 N.am     261 DC      0.0000
   2083 C2        -0.9442     2.6500   830.4989 C.2      261 DC      0.0000
   2084 O2        -0.0359     3.4767   830.6393 O.2      261 DC      0.0000
   2085 N3        -0.5140     1.3674   830.6971 N.2      261 DC      0.0000
   2086 C4        -1.3551     0.2950   830.5811 C.2      261 DC      0.0000
   2087 N4        -0.8899    -0.9453   830.7972 N.pl3    261 DC      0.0000
   2088 C5        -2.7214     0.5123   830.2515 C.2      261 DC      0.0000
   2089 C6        -3.1183     1.7757   830.0598 C.2      261 DC      0.0000
   2090 H5'       -5.6249     7.3485   830.8930 H        261 DC      0.0000
   2091 H5''      -5.3053     6.0433   832.0631 H        261 DC      0.0000
   2092 H4'       -3.4431     6.9728   830.4072 H        261 DC      0.0000
   2093 H3'       -5.0954     5.9256   828.4636 H        261 DC      0.0000
   2094 H2'       -4.8783     3.6442   829.5654 H        261 DC      0.0000
   2095 H2''      -3.8231     3.5866   828.1000 H        261 DC      0.0000
   2096 H1'       -1.9678     4.7379   829.3989 H        261 DC      0.0000
   2097 H5        -3.4131    -0.3121   830.1593 H        261 DC      0.0000
   2098 H6        -4.1498     1.9573   829.7965 H        261 DC      0.0000
   2099 H41        0.0809    -1.0858   831.0377 H        261 DC      0.0000
   2100 H42       -1.5107    -1.7382   830.7193 H        261 DC      0.0000
@<TRIPOS>BOND
     1      9     33 1
     2     41     65 1
     3     73     97 1
     4    105    127 1
     5    135    159 1
     6    197    222 1
     7    230    254 1
     8    262    287 1
     9    295    319 1
    10    327    351 1
    11      1      2 1
    12      1      3 1
    13      1      4 1
    14      4      5 1
    15      5      6 1
    16      6      7 1
    17      6      8 1
    18      7     11 1
    19      8      9 1
    20      8     10 1
    21     10     11 1
    22     11     12 1
    23     12     13 ar
    24     12     21 ar
    25     13     14 ar
    26     14     15 ar
    27     15     16 ar
    28     15     21 ar
    29     16     17 1
    30     16     18 ar
    31     18     19 ar
    32     19     20 ar
    33     20     21 ar
    34     33     34 1
    35     33     35 1
    36     33     36 1
    37     36     37 1
    38     37     38 1
    39     38     39 1
    40     38     40 1
    41     39     43 1
    42     40     41 1
    43     40     42 1
    44     42     43 1
    45     43     44 1
    46     44     45 am
    47     44     52 1
    48     45     46 2
    49     45     47 am
    50     47     48 am
    51     48     49 2
    52     48     50 1
    53     50     51 1
    54     50     52 2
    55     65     66 1
    56     65     67 1
    57     65     68 1
    58     68     69 1
    59     69     70 1
    60     70     71 1
    61     70     72 1
    62     71     75 1
    63     72     73 1
    64     72     74 1
    65     74     75 1
    66     75     76 1
    67     76     77 am
    68     76     84 1
    69     77     78 2
    70     77     79 am
    71     79     80 am
    72     80     81 2
    73     80     82 1
    74     82     83 1
    75     82     84 2
    76     97     98 1
    77     97     99 1
    78     97    100 1
    79    100    101 1
    80    101    102 1
    81    102    103 1
    82    102    104 1
    83    103    107 1
    84    104    105 1
    85    104    106 1
    86    106    107 1
    87    107    108 1
    88    108    109 am
    89    108    115 1
    90    109    110 2
    91    109    111 1
    92    111    112 2
    93    112    113 2
    94    112    114 2
    95    114    115 2
    96    127    128 1
    97    127    129 1
    98    127    130 1
    99    130    131 1
   100    131    132 1
   101    132    133 1
   102    132    134 1
   103    133    137 1
   104    134    135 1
   105    134    136 1
   106    136    137 1
   107    137    138 1
   108    138    139 ar
   109    138    147 ar
   110    139    140 ar
   111    140    141 ar
   112    141    142 ar
   113    141    147 ar
   114    142    143 1
   115    142    144 ar
   116    144    145 ar
   117    145    146 ar
   118    146    147 ar
   119    159    160 1
   120    159    161 1
   121    159    162 1
   122    162    163 1
   123    163    164 1
   124    164    165 1
   125    164    166 1
   126    165    169 1
   127    166    167 1
   128    166    168 1
   129    168    169 1
   130    169    170 1
   131    170    171 am
   132    170    177 1
   133    171    172 2
   134    171    173 1
   135    173    174 2
   136    174    175 2
   137    174    176 2
   138    176    177 2
   139    189    190 1
   140    189    191 1
   141    189    192 1
   142    192    193 1
   143    193    194 1
   144    194    195 1
   145    194    196 1
   146    195    199 1
   147    196    197 1
   148    196    198 1
   149    198    199 1
   150    199    200 1
   151    200    201 ar
   152    200    210 ar
   153    201    202 ar
   154    202    203 ar
   155    203    204 1
   156    203    210 ar
   157    204    205 2
   158    204    206 am
   159    206    207 1
   160    207    208 2
   161    207    209 2
   162    209    210 1
   163    222    223 1
   164    222    224 1
   165    222    225 1
   166    225    226 1
   167    226    227 1
   168    227    228 1
   169    227    229 1
   170    228    232 1
   171    229    230 1
   172    229    231 1
   173    231    232 1
   174    232    233 1
   175    233    234 am
   176    233    241 1
   177    234    235 2
   178    234    236 am
   179    236    237 am
   180    237    238 2
   181    237    239 1
   182    239    240 1
   183    239    241 2
   184    254    255 1
   185    254    256 1
   186    254    257 1
   187    257    258 1
   188    258    259 1
   189    259    260 1
   190    259    261 1
   191    260    264 1
   192    261    262 1
   193    261    263 1
   194    263    264 1
   195    264    265 1
   196    265    266 ar
   197    265    275 ar
   198    266    267 ar
   199    267    268 ar
   200    268    269 1
   201    268    275 ar
   202    269    270 2
   203    269    271 am
   204    271    272 1
   205    272    273 2
   206    272    274 2
   207    274    275 1
   208    287    288 1
   209    287    289 1
   210    287    290 1
   211    290    291 1
   212    291    292 1
   213    292    293 1
   214    292    294 1
   215    293    297 1
   216    294    295 1
   217    294    296 1
   218    296    297 1
   219    297    298 1
   220    298    299 ar
   221    298    307 ar
   222    299    300 ar
   223    300    301 ar
   224    301    302 ar
   225    301    307 ar
   226    302    303 1
   227    302    304 ar
   228    304    305 ar
   229    305    306 ar
   230    306    307 ar
   231    319    320 1
   232    319    321 1
   233    319    322 1
   234    322    323 1
   235    323    324 1
   236    324    325 1
   237    324    326 1
   238    325    329 1
   239    326    327 1
   240    326    328 1
   241    328    329 1
   242    329    330 1
   243    330    331 ar
   244    330    339 ar
   245    331    332 ar
   246    332    333 ar
   247    333    334 ar
   248    333    339 ar
   249    334    335 1
   250    334    336 ar
   251    336    337 ar
   252    337    338 ar
   253    338    339 ar
   254    351    352 1
   255    351    353 1
   256    351    354 1
   257    354    355 1
   258    355    356 1
   259    356    357 1
   260    356    358 1
   261    357    361 1
   262    358    359 1
   263    358    360 1
   264    360    361 1
   265    361    362 1
   266    362    363 am
   267    362    370 1
   268    363    364 2
   269    363    365 am
   270    365    366 am
   271    366    367 2
   272    366    368 1
   273    368    369 1
   274    368    370 2
   275     22      5 1
   276     23      5 1
   277     24      6 1
   278     25      8 1
   279     26     10 1
   280     27     10 1
   281     28     11 1
   282     29     13 1
   283     30     19 1
   284     53     37 1
   285     54     37 1
   286     55     38 1
   287     56     40 1
   288     57     42 1
   289     58     42 1
   290     59     43 1
   291     60     47 1
   292     61     52 1
   293     85     69 1
   294     86     69 1
   295     87     70 1
   296     88     72 1
   297     89     74 1
   298     90     74 1
   299     91     75 1
   300     92     79 1
   301     93     84 1
   302    116    101 1
   303    117    101 1
   304    118    102 1
   305    119    104 1
   306    120    106 1
   307    121    106 1
   308    122    107 1
   309    123    114 1
   310    124    115 1
   311    148    131 1
   312    149    131 1
   313    150    132 1
   314    151    134 1
   315    152    136 1
   316    153    136 1
   317    154    137 1
   318    155    139 1
   319    156    145 1
   320    178    163 1
   321    179    163 1
   322    180    164 1
   323    181    166 1
   324    182    168 1
   325    183    168 1
   326    184    169 1
   327    185    176 1
   328    186    177 1
   329    211    193 1
   330    212    193 1
   331    213    194 1
   332    214    196 1
   333    215    198 1
   334    216    198 1
   335    217    199 1
   336    218    201 1
   337    219    206 1
   338    242    226 1
   339    243    226 1
   340    244    227 1
   341    245    229 1
   342    246    231 1
   343    247    231 1
   344    248    232 1
   345    249    236 1
   346    250    241 1
   347    276    258 1
   348    277    258 1
   349    278    259 1
   350    279    261 1
   351    280    263 1
   352    281    263 1
   353    282    264 1
   354    283    266 1
   355    284    271 1
   356    308    291 1
   357    309    291 1
   358    310    292 1
   359    311    294 1
   360    312    296 1
   361    313    296 1
   362    314    297 1
   363    315    299 1
   364    316    305 1
   365    340    323 1
   366    341    323 1
   367    342    324 1
   368    343    326 1
   369    344    328 1
   370    345    328 1
   371    346    329 1
   372    347    331 1
   373    348    337 1
   374    371    355 1
   375    372    355 1
   376    373    356 1
   377    374    358 1
   378    375    360 1
   379    376    360 1
   380    377    361 1
   381    378    365 1
   382    379    370 1
   383    125    113 1
   384    126    113 1
   385    187    175 1
   386    188    175 1
   387    220    208 1
   388    221    208 1
   389    285    273 1
   390    286    273 1
   391     31     17 1
   392     32     17 1
   393    157    143 1
   394    158    143 1
   395    317    303 1
   396    318    303 1
   397    349    335 1
   398    350    335 1
   399     62     51 1
   400     63     51 1
   401     64     51 1
   402     94     83 1
   403     95     83 1
   404     96     83 1
   405    251    240 1
   406    252    240 1
   407    253    240 1
   408    380    369 1
   409    381    369 1
   410    382    369 1
   411    167    383 1
   412    189    997 1
   413    391    416 1
   414    424    448 1
   415    456    481 1
   416    489    513 1
   417    521    545 1
   418    553    577 1
   419    585    609 1
   420    617    639 1
   421    647    671 1
   422    709    734 1
   423    742    766 1
   424    774    799 1
   425    807    831 1
   426    839    863 1
   427    871    895 1
   428    903    927 1
   429    935    957 1
   430    965    989 1
   431    383    384 1
   432    383    385 1
   433    383    386 1
   434    386    387 1
   435    387    388 1
   436    388    389 1
   437    388    390 1
   438    389    393 1
   439    390    391 1
   440    390    392 1
   441    392    393 1
   442    393    394 1
   443    394    395 ar
   444    394    404 ar
   445    395    396 ar
   446    396    397 ar
   447    397    398 1
   448    397    404 ar
   449    398    399 2
   450    398    400 am
   451    400    401 1
   452    401    402 2
   453    401    403 2
   454    403    404 1
   455    416    417 1
   456    416    418 1
   457    416    419 1
   458    419    420 1
   459    420    421 1
   460    421    422 1
   461    421    423 1
   462    422    426 1
   463    423    424 1
   464    423    425 1
   465    425    426 1
   466    426    427 1
   467    427    428 am
   468    427    435 1
   469    428    429 2
   470    428    430 am
   471    430    431 am
   472    431    432 2
   473    431    433 1
   474    433    434 1
   475    433    435 2
   476    448    449 1
   477    448    450 1
   478    448    451 1
   479    451    452 1
   480    452    453 1
   481    453    454 1
   482    453    455 1
   483    454    458 1
   484    455    456 1
   485    455    457 1
   486    457    458 1
   487    458    459 1
   488    459    460 ar
   489    459    469 ar
   490    460    461 ar
   491    461    462 ar
   492    462    463 1
   493    462    469 ar
   494    463    464 2
   495    463    465 am
   496    465    466 1
   497    466    467 2
   498    466    468 2
   499    468    469 1
   500    481    482 1
   501    481    483 1
   502    481    484 1
   503    484    485 1
   504    485    486 1
   505    486    487 1
   506    486    488 1
   507    487    491 1
   508    488    489 1
   509    488    490 1
   510    490    491 1
   511    491    492 1
   512    492    493 ar
   513    492    501 ar
   514    493    494 ar
   515    494    495 ar
   516    495    496 ar
   517    495    501 ar
   518    496    497 1
   519    496    498 ar
   520    498    499 ar
   521    499    500 ar
   522    500    501 ar
   523    513    514 1
   524    513    515 1
   525    513    516 1
   526    516    517 1
   527    517    518 1
   528    518    519 1
   529    518    520 1
   530    519    523 1
   531    520    521 1
   532    520    522 1
   533    522    523 1
   534    523    524 1
   535    524    525 ar
   536    524    533 ar
   537    525    526 ar
   538    526    527 ar
   539    527    528 ar
   540    527    533 ar
   541    528    529 1
   542    528    530 ar
   543    530    531 ar
   544    531    532 ar
   545    532    533 ar
   546    545    546 1
   547    545    547 1
   548    545    548 1
   549    548    549 1
   550    549    550 1
   551    550    551 1
   552    550    552 1
   553    551    555 1
   554    552    553 1
   555    552    554 1
   556    554    555 1
   557    555    556 1
   558    556    557 am
   559    556    564 1
   560    557    558 2
   561    557    559 am
   562    559    560 am
   563    560    561 2
   564    560    562 1
   565    562    563 1
   566    562    564 2
   567    577    578 1
   568    577    579 1
   569    577    580 1
   570    580    581 1
   571    581    582 1
   572    582    583 1
   573    582    584 1
   574    583    587 1
   575    584    585 1
   576    584    586 1
   577    586    587 1
   578    587    588 1
   579    588    589 am
   580    588    596 1
   581    589    590 2
   582    589    591 am
   583    591    592 am
   584    592    593 2
   585    592    594 1
   586    594    595 1
   587    594    596 2
   588    609    610 1
   589    609    611 1
   590    609    612 1
   591    612    613 1
   592    613    614 1
   593    614    615 1
   594    614    616 1
   595    615    619 1
   596    616    617 1
   597    616    618 1
   598    618    619 1
   599    619    620 1
   600    620    621 am
   601    620    627 1
   602    621    622 2
   603    621    623 1
   604    623    624 2
   605    624    625 2
   606    624    626 2
   607    626    627 2
   608    639    640 1
   609    639    641 1
   610    639    642 1
   611    642    643 1
   612    643    644 1
   613    644    645 1
   614    644    646 1
   615    645    649 1
   616    646    647 1
   617    646    648 1
   618    648    649 1
   619    649    650 1
   620    650    651 ar
   621    650    659 ar
   622    651    652 ar
   623    652    653 ar
   624    653    654 ar
   625    653    659 ar
   626    654    655 1
   627    654    656 ar
   628    656    657 ar
   629    657    658 ar
   630    658    659 ar
   631    671    672 1
   632    671    673 1
   633    671    674 1
   634    674    675 1
   635    675    676 1
   636    676    677 1
   637    676    678 1
   638    677    681 1
   639    678    679 1
   640    678    680 1
   641    680    681 1
   642    681    682 1
   643    682    683 am
   644    682    689 1
   645    683    684 2
   646    683    685 1
   647    685    686 2
   648    686    687 2
   649    686    688 2
   650    688    689 2
   651    701    702 1
   652    701    703 1
   653    701    704 1
   654    704    705 1
   655    705    706 1
   656    706    707 1
   657    706    708 1
   658    707    711 1
   659    708    709 1
   660    708    710 1
   661    710    711 1
   662    711    712 1
   663    712    713 ar
   664    712    722 ar
   665    713    714 ar
   666    714    715 ar
   667    715    716 1
   668    715    722 ar
   669    716    717 2
   670    716    718 am
   671    718    719 1
   672    719    720 2
   673    719    721 2
   674    721    722 1
   675    734    735 1
   676    734    736 1
   677    734    737 1
   678    737    738 1
   679    738    739 1
   680    739    740 1
   681    739    741 1
   682    740    744 1
   683    741    742 1
   684    741    743 1
   685    743    744 1
   686    744    745 1
   687    745    746 am
   688    745    753 1
   689    746    747 2
   690    746    748 am
   691    748    749 am
   692    749    750 2
   693    749    751 1
   694    751    752 1
   695    751    753 2
   696    766    767 1
   697    766    768 1
   698    766    769 1
   699    769    770 1
   700    770    771 1
   701    771    772 1
   702    771    773 1
   703    772    776 1
   704    773    774 1
   705    773    775 1
   706    775    776 1
   707    776    777 1
   708    777    778 ar
   709    777    787 ar
   710    778    779 ar
   711    779    780 ar
   712    780    781 1
   713    780    787 ar
   714    781    782 2
   715    781    783 am
   716    783    784 1
   717    784    785 2
   718    784    786 2
   719    786    787 1
   720    799    800 1
   721    799    801 1
   722    799    802 1
   723    802    803 1
   724    803    804 1
   725    804    805 1
   726    804    806 1
   727    805    809 1
   728    806    807 1
   729    806    808 1
   730    808    809 1
   731    809    810 1
   732    810    811 ar
   733    810    819 ar
   734    811    812 ar
   735    812    813 ar
   736    813    814 ar
   737    813    819 ar
   738    814    815 1
   739    814    816 ar
   740    816    817 ar
   741    817    818 ar
   742    818    819 ar
   743    831    832 1
   744    831    833 1
   745    831    834 1
   746    834    835 1
   747    835    836 1
   748    836    837 1
   749    836    838 1
   750    837    841 1
   751    838    839 1
   752    838    840 1
   753    840    841 1
   754    841    842 1
   755    842    843 ar
   756    842    851 ar
   757    843    844 ar
   758    844    845 ar
   759    845    846 ar
   760    845    851 ar
   761    846    847 1
   762    846    848 ar
   763    848    849 ar
   764    849    850 ar
   765    850    851 ar
   766    863    864 1
   767    863    865 1
   768    863    866 1
   769    866    867 1
   770    867    868 1
   771    868    869 1
   772    868    870 1
   773    869    873 1
   774    870    871 1
   775    870    872 1
   776    872    873 1
   777    873    874 1
   778    874    875 am
   779    874    882 1
   780    875    876 2
   781    875    877 am
   782    877    878 am
   783    878    879 2
   784    878    880 1
   785    880    881 1
   786    880    882 2
   787    895    896 1
   788    895    897 1
   789    895    898 1
   790    898    899 1
   791    899    900 1
   792    900    901 1
   793    900    902 1
   794    901    905 1
   795    902    903 1
   796    902    904 1
   797    904    905 1
   798    905    906 1
   799    906    907 am
   800    906    914 1
   801    907    908 2
   802    907    909 am
   803    909    910 am
   804    910    911 2
   805    910    912 1
   806    912    913 1
   807    912    914 2
   808    927    928 1
   809    927    929 1
   810    927    930 1
   811    930    931 1
   812    931    932 1
   813    932    933 1
   814    932    934 1
   815    933    937 1
   816    934    935 1
   817    934    936 1
   818    936    937 1
   819    937    938 1
   820    938    939 am
   821    938    945 1
   822    939    940 2
   823    939    941 1
   824    941    942 2
   825    942    943 2
   826    942    944 2
   827    944    945 2
   828    957    958 1
   829    957    959 1
   830    957    960 1
   831    960    961 1
   832    961    962 1
   833    962    963 1
   834    962    964 1
   835    963    967 1
   836    964    965 1
   837    964    966 1
   838    966    967 1
   839    967    968 1
   840    968    969 ar
   841    968    977 ar
   842    969    970 ar
   843    970    971 ar
   844    971    972 ar
   845    971    977 ar
   846    972    973 1
   847    972    974 ar
   848    974    975 ar
   849    975    976 ar
   850    976    977 ar
   851    989    990 1
   852    989    991 1
   853    989    992 1
   854    992    993 1
   855    993    994 1
   856    994    995 1
   857    994    996 1
   858    995    999 1
   859    996    997 1
   860    996    998 1
   861    998    999 1
   862    999   1000 1
   863   1000   1001 am
   864   1000   1007 1
   865   1001   1002 2
   866   1001   1003 1
   867   1003   1004 2
   868   1004   1005 2
   869   1004   1006 2
   870   1006   1007 2
   871    405    387 1
   872    406    387 1
   873    407    388 1
   874    408    390 1
   875    409    392 1
   876    410    392 1
   877    411    393 1
   878    412    395 1
   879    413    400 1
   880    436    420 1
   881    437    420 1
   882    438    421 1
   883    439    423 1
   884    440    425 1
   885    441    425 1
   886    442    426 1
   887    443    430 1
   888    444    435 1
   889    470    452 1
   890    471    452 1
   891    472    453 1
   892    473    455 1
   893    474    457 1
   894    475    457 1
   895    476    458 1
   896    477    460 1
   897    478    465 1
   898    502    485 1
   899    503    485 1
   900    504    486 1
   901    505    488 1
   902    506    490 1
   903    507    490 1
   904    508    491 1
   905    509    493 1
   906    510    499 1
   907    534    517 1
   908    535    517 1
   909    536    518 1
   910    537    520 1
   911    538    522 1
   912    539    522 1
   913    540    523 1
   914    541    525 1
   915    542    531 1
   916    565    549 1
   917    566    549 1
   918    567    550 1
   919    568    552 1
   920    569    554 1
   921    570    554 1
   922    571    555 1
   923    572    559 1
   924    573    564 1
   925    597    581 1
   926    598    581 1
   927    599    582 1
   928    600    584 1
   929    601    586 1
   930    602    586 1
   931    603    587 1
   932    604    591 1
   933    605    596 1
   934    628    613 1
   935    629    613 1
   936    630    614 1
   937    631    616 1
   938    632    618 1
   939    633    618 1
   940    634    619 1
   941    635    626 1
   942    636    627 1
   943    660    643 1
   944    661    643 1
   945    662    644 1
   946    663    646 1
   947    664    648 1
   948    665    648 1
   949    666    649 1
   950    667    651 1
   951    668    657 1
   952    690    675 1
   953    691    675 1
   954    692    676 1
   955    693    678 1
   956    694    680 1
   957    695    680 1
   958    696    681 1
   959    697    688 1
   960    698    689 1
   961    723    705 1
   962    724    705 1
   963    725    706 1
   964    726    708 1
   965    727    710 1
   966    728    710 1
   967    729    711 1
   968    730    713 1
   969    731    718 1
   970    754    738 1
   971    755    738 1
   972    756    739 1
   973    757    741 1
   974    758    743 1
   975    759    743 1
   976    760    744 1
   977    761    748 1
   978    762    753 1
   979    788    770 1
   980    789    770 1
   981    790    771 1
   982    791    773 1
   983    792    775 1
   984    793    775 1
   985    794    776 1
   986    795    778 1
   987    796    783 1
   988    820    803 1
   989    821    803 1
   990    822    804 1
   991    823    806 1
   992    824    808 1
   993    825    808 1
   994    826    809 1
   995    827    811 1
   996    828    817 1
   997    852    835 1
   998    853    835 1
   999    854    836 1
  1000    855    838 1
  1001    856    840 1
  1002    857    840 1
  1003    858    841 1
  1004    859    843 1
  1005    860    849 1
  1006    883    867 1
  1007    884    867 1
  1008    885    868 1
  1009    886    870 1
  1010    887    872 1
  1011    888    872 1
  1012    889    873 1
  1013    890    877 1
  1014    891    882 1
  1015    915    899 1
  1016    916    899 1
  1017    917    900 1
  1018    918    902 1
  1019    919    904 1
  1020    920    904 1
  1021    921    905 1
  1022    922    909 1
  1023    923    914 1
  1024    946    931 1
  1025    947    931 1
  1026    948    932 1
  1027    949    934 1
  1028    950    936 1
  1029    951    936 1
  1030    952    937 1
  1031    953    944 1
  1032    954    945 1
  1033    978    961 1
  1034    979    961 1
  1035    980    962 1
  1036    981    964 1
  1037    982    966 1
  1038    983    966 1
  1039    984    967 1
  1040    985    969 1
  1041    986    975 1
  1042   1008    993 1
  1043   1009    993 1
  1044   1010    994 1
  1045   1011    996 1
  1046   1012    998 1
  1047   1013    998 1
  1048   1014    999 1
  1049   1015   1006 1
  1050   1016   1007 1
  1051    414    402 1
  1052    415    402 1
  1053    479    467 1
  1054    480    467 1
  1055    637    625 1
  1056    638    625 1
  1057    699    687 1
  1058    700    687 1
  1059    732    720 1
  1060    733    720 1
  1061    797    785 1
  1062    798    785 1
  1063    955    943 1
  1064    956    943 1
  1065   1017   1005 1
  1066   1018   1005 1
  1067    511    497 1
  1068    512    497 1
  1069    543    529 1
  1070    544    529 1
  1071    669    655 1
  1072    670    655 1
  1073    829    815 1
  1074    830    815 1
  1075    861    847 1
  1076    862    847 1
  1077    987    973 1
  1078    988    973 1
  1079    445    434 1
  1080    446    434 1
  1081    447    434 1
  1082    574    563 1
  1083    575    563 1
  1084    576    563 1
  1085    606    595 1
  1086    607    595 1
  1087    608    595 1
  1088    763    752 1
  1089    764    752 1
  1090    765    752 1
  1091    892    881 1
  1092    893    881 1
  1093    894    881 1
  1094    924    913 1
  1095    925    913 1
  1096    926    913 1
  1097    679   1019 1
  1098    701   1633 1
  1099   1027   1052 1
  1100   1060   1084 1
  1101   1092   1117 1
  1102   1125   1149 1
  1103   1157   1181 1
  1104   1189   1213 1
  1105   1221   1245 1
  1106   1253   1275 1
  1107   1283   1307 1
  1108   1345   1370 1
  1109   1378   1402 1
  1110   1410   1435 1
  1111   1443   1467 1
  1112   1475   1499 1
  1113   1507   1531 1
  1114   1539   1563 1
  1115   1571   1593 1
  1116   1601   1625 1
  1117   1019   1020 1
  1118   1019   1021 1
  1119   1019   1022 1
  1120   1022   1023 1
  1121   1023   1024 1
  1122   1024   1025 1
  1123   1024   1026 1
  1124   1025   1029 1
  1125   1026   1027 1
  1126   1026   1028 1
  1127   1028   1029 1
  1128   1029   1030 1
  1129   1030   1031 ar
  1130   1030   1040 ar
  1131   1031   1032 ar
  1132   1032   1033 ar
  1133   1033   1034 1
  1134   1033   1040 ar
  1135   1034   1035 2
  1136   1034   1036 am
  1137   1036   1037 1
  1138   1037   1038 2
  1139   1037   1039 2
  1140   1039   1040 1
  1141   1052   1053 1
  1142   1052   1054 1
  1143   1052   1055 1
  1144   1055   1056 1
  1145   1056   1057 1
  1146   1057   1058 1
  1147   1057   1059 1
  1148   1058   1062 1
  1149   1059   1060 1
  1150   1059   1061 1
  1151   1061   1062 1
  1152   1062   1063 1
  1153   1063   1064 am
  1154   1063   1071 1
  1155   1064   1065 2
  1156   1064   1066 am
  1157   1066   1067 am
  1158   1067   1068 2
  1159   1067   1069 1
  1160   1069   1070 1
  1161   1069   1071 2
  1162   1084   1085 1
  1163   1084   1086 1
  1164   1084   1087 1
  1165   1087   1088 1
  1166   1088   1089 1
  1167   1089   1090 1
  1168   1089   1091 1
  1169   1090   1094 1
  1170   1091   1092 1
  1171   1091   1093 1
  1172   1093   1094 1
  1173   1094   1095 1
  1174   1095   1096 ar
  1175   1095   1105 ar
  1176   1096   1097 ar
  1177   1097   1098 ar
  1178   1098   1099 1
  1179   1098   1105 ar
  1180   1099   1100 2
  1181   1099   1101 am
  1182   1101   1102 1
  1183   1102   1103 2
  1184   1102   1104 2
  1185   1104   1105 1
  1186   1117   1118 1
  1187   1117   1119 1
  1188   1117   1120 1
  1189   1120   1121 1
  1190   1121   1122 1
  1191   1122   1123 1
  1192   1122   1124 1
  1193   1123   1127 1
  1194   1124   1125 1
  1195   1124   1126 1
  1196   1126   1127 1
  1197   1127   1128 1
  1198   1128   1129 ar
  1199   1128   1137 ar
  1200   1129   1130 ar
  1201   1130   1131 ar
  1202   1131   1132 ar
  1203   1131   1137 ar
  1204   1132   1133 1
  1205   1132   1134 ar
  1206   1134   1135 ar
  1207   1135   1136 ar
  1208   1136   1137 ar
  1209   1149   1150 1
  1210   1149   1151 1
  1211   1149   1152 1
  1212   1152   1153 1
  1213   1153   1154 1
  1214   1154   1155 1
  1215   1154   1156 1
  1216   1155   1159 1
  1217   1156   1157 1
  1218   1156   1158 1
  1219   1158   1159 1
  1220   1159   1160 1
  1221   1160   1161 ar
  1222   1160   1169 ar
  1223   1161   1162 ar
  1224   1162   1163 ar
  1225   1163   1164 ar
  1226   1163   1169 ar
  1227   1164   1165 1
  1228   1164   1166 ar
  1229   1166   1167 ar
  1230   1167   1168 ar
  1231   1168   1169 ar
  1232   1181   1182 1
  1233   1181   1183 1
  1234   1181   1184 1
  1235   1184   1185 1
  1236   1185   1186 1
  1237   1186   1187 1
  1238   1186   1188 1
  1239   1187   1191 1
  1240   1188   1189 1
  1241   1188   1190 1
  1242   1190   1191 1
  1243   1191   1192 1
  1244   1192   1193 am
  1245   1192   1200 1
  1246   1193   1194 2
  1247   1193   1195 am
  1248   1195   1196 am
  1249   1196   1197 2
  1250   1196   1198 1
  1251   1198   1199 1
  1252   1198   1200 2
  1253   1213   1214 1
  1254   1213   1215 1
  1255   1213   1216 1
  1256   1216   1217 1
  1257   1217   1218 1
  1258   1218   1219 1
  1259   1218   1220 1
  1260   1219   1223 1
  1261   1220   1221 1
  1262   1220   1222 1
  1263   1222   1223 1
  1264   1223   1224 1
  1265   1224   1225 am
  1266   1224   1232 1
  1267   1225   1226 2
  1268   1225   1227 am
  1269   1227   1228 am
  1270   1228   1229 2
  1271   1228   1230 1
  1272   1230   1231 1
  1273   1230   1232 2
  1274   1245   1246 1
  1275   1245   1247 1
  1276   1245   1248 1
  1277   1248   1249 1
  1278   1249   1250 1
  1279   1250   1251 1
  1280   1250   1252 1
  1281   1251   1255 1
  1282   1252   1253 1
  1283   1252   1254 1
  1284   1254   1255 1
  1285   1255   1256 1
  1286   1256   1257 am
  1287   1256   1263 1
  1288   1257   1258 2
  1289   1257   1259 1
  1290   1259   1260 2
  1291   1260   1261 2
  1292   1260   1262 2
  1293   1262   1263 2
  1294   1275   1276 1
  1295   1275   1277 1
  1296   1275   1278 1
  1297   1278   1279 1
  1298   1279   1280 1
  1299   1280   1281 1
  1300   1280   1282 1
  1301   1281   1285 1
  1302   1282   1283 1
  1303   1282   1284 1
  1304   1284   1285 1
  1305   1285   1286 1
  1306   1286   1287 ar
  1307   1286   1295 ar
  1308   1287   1288 ar
  1309   1288   1289 ar
  1310   1289   1290 ar
  1311   1289   1295 ar
  1312   1290   1291 1
  1313   1290   1292 ar
  1314   1292   1293 ar
  1315   1293   1294 ar
  1316   1294   1295 ar
  1317   1307   1308 1
  1318   1307   1309 1
  1319   1307   1310 1
  1320   1310   1311 1
  1321   1311   1312 1
  1322   1312   1313 1
  1323   1312   1314 1
  1324   1313   1317 1
  1325   1314   1315 1
  1326   1314   1316 1
  1327   1316   1317 1
  1328   1317   1318 1
  1329   1318   1319 am
  1330   1318   1325 1
  1331   1319   1320 2
  1332   1319   1321 1
  1333   1321   1322 2
  1334   1322   1323 2
  1335   1322   1324 2
  1336   1324   1325 2
  1337   1337   1338 1
  1338   1337   1339 1
  1339   1337   1340 1
  1340   1340   1341 1
  1341   1341   1342 1
  1342   1342   1343 1
  1343   1342   1344 1
  1344   1343   1347 1
  1345   1344   1345 1
  1346   1344   1346 1
  1347   1346   1347 1
  1348   1347   1348 1
  1349   1348   1349 ar
  1350   1348   1358 ar
  1351   1349   1350 ar
  1352   1350   1351 ar
  1353   1351   1352 1
  1354   1351   1358 ar
  1355   1352   1353 2
  1356   1352   1354 am
  1357   1354   1355 1
  1358   1355   1356 2
  1359   1355   1357 2
  1360   1357   1358 1
  1361   1370   1371 1
  1362   1370   1372 1
  1363   1370   1373 1
  1364   1373   1374 1
  1365   1374   1375 1
  1366   1375   1376 1
  1367   1375   1377 1
  1368   1376   1380 1
  1369   1377   1378 1
  1370   1377   1379 1
  1371   1379   1380 1
  1372   1380   1381 1
  1373   1381   1382 am
  1374   1381   1389 1
  1375   1382   1383 2
  1376   1382   1384 am
  1377   1384   1385 am
  1378   1385   1386 2
  1379   1385   1387 1
  1380   1387   1388 1
  1381   1387   1389 2
  1382   1402   1403 1
  1383   1402   1404 1
  1384   1402   1405 1
  1385   1405   1406 1
  1386   1406   1407 1
  1387   1407   1408 1
  1388   1407   1409 1
  1389   1408   1412 1
  1390   1409   1410 1
  1391   1409   1411 1
  1392   1411   1412 1
  1393   1412   1413 1
  1394   1413   1414 ar
  1395   1413   1423 ar
  1396   1414   1415 ar
  1397   1415   1416 ar
  1398   1416   1417 1
  1399   1416   1423 ar
  1400   1417   1418 2
  1401   1417   1419 am
  1402   1419   1420 1
  1403   1420   1421 2
  1404   1420   1422 2
  1405   1422   1423 1
  1406   1435   1436 1
  1407   1435   1437 1
  1408   1435   1438 1
  1409   1438   1439 1
  1410   1439   1440 1
  1411   1440   1441 1
  1412   1440   1442 1
  1413   1441   1445 1
  1414   1442   1443 1
  1415   1442   1444 1
  1416   1444   1445 1
  1417   1445   1446 1
  1418   1446   1447 ar
  1419   1446   1455 ar
  1420   1447   1448 ar
  1421   1448   1449 ar
  1422   1449   1450 ar
  1423   1449   1455 ar
  1424   1450   1451 1
  1425   1450   1452 ar
  1426   1452   1453 ar
  1427   1453   1454 ar
  1428   1454   1455 ar
  1429   1467   1468 1
  1430   1467   1469 1
  1431   1467   1470 1
  1432   1470   1471 1
  1433   1471   1472 1
  1434   1472   1473 1
  1435   1472   1474 1
  1436   1473   1477 1
  1437   1474   1475 1
  1438   1474   1476 1
  1439   1476   1477 1
  1440   1477   1478 1
  1441   1478   1479 ar
  1442   1478   1487 ar
  1443   1479   1480 ar
  1444   1480   1481 ar
  1445   1481   1482 ar
  1446   1481   1487 ar
  1447   1482   1483 1
  1448   1482   1484 ar
  1449   1484   1485 ar
  1450   1485   1486 ar
  1451   1486   1487 ar
  1452   1499   1500 1
  1453   1499   1501 1
  1454   1499   1502 1
  1455   1502   1503 1
  1456   1503   1504 1
  1457   1504   1505 1
  1458   1504   1506 1
  1459   1505   1509 1
  1460   1506   1507 1
  1461   1506   1508 1
  1462   1508   1509 1
  1463   1509   1510 1
  1464   1510   1511 am
  1465   1510   1518 1
  1466   1511   1512 2
  1467   1511   1513 am
  1468   1513   1514 am
  1469   1514   1515 2
  1470   1514   1516 1
  1471   1516   1517 1
  1472   1516   1518 2
  1473   1531   1532 1
  1474   1531   1533 1
  1475   1531   1534 1
  1476   1534   1535 1
  1477   1535   1536 1
  1478   1536   1537 1
  1479   1536   1538 1
  1480   1537   1541 1
  1481   1538   1539 1
  1482   1538   1540 1
  1483   1540   1541 1
  1484   1541   1542 1
  1485   1542   1543 am
  1486   1542   1550 1
  1487   1543   1544 2
  1488   1543   1545 am
  1489   1545   1546 am
  1490   1546   1547 2
  1491   1546   1548 1
  1492   1548   1549 1
  1493   1548   1550 2
  1494   1563   1564 1
  1495   1563   1565 1
  1496   1563   1566 1
  1497   1566   1567 1
  1498   1567   1568 1
  1499   1568   1569 1
  1500   1568   1570 1
  1501   1569   1573 1
  1502   1570   1571 1
  1503   1570   1572 1
  1504   1572   1573 1
  1505   1573   1574 1
  1506   1574   1575 am
  1507   1574   1581 1
  1508   1575   1576 2
  1509   1575   1577 1
  1510   1577   1578 2
  1511   1578   1579 2
  1512   1578   1580 2
  1513   1580   1581 2
  1514   1593   1594 1
  1515   1593   1595 1
  1516   1593   1596 1
  1517   1596   1597 1
  1518   1597   1598 1
  1519   1598   1599 1
  1520   1598   1600 1
  1521   1599   1603 1
  1522   1600   1601 1
  1523   1600   1602 1
  1524   1602   1603 1
  1525   1603   1604 1
  1526   1604   1605 ar
  1527   1604   1613 ar
  1528   1605   1606 ar
  1529   1606   1607 ar
  1530   1607   1608 ar
  1531   1607   1613 ar
  1532   1608   1609 1
  1533   1608   1610 ar
  1534   1610   1611 ar
  1535   1611   1612 ar
  1536   1612   1613 ar
  1537   1625   1626 1
  1538   1625   1627 1
  1539   1625   1628 1
  1540   1628   1629 1
  1541   1629   1630 1
  1542   1630   1631 1
  1543   1630   1632 1
  1544   1631   1635 1
  1545   1632   1633 1
  1546   1632   1634 1
  1547   1634   1635 1
  1548   1635   1636 1
  1549   1636   1637 am
  1550   1636   1643 1
  1551   1637   1638 2
  1552   1637   1639 1
  1553   1639   1640 2
  1554   1640   1641 2
  1555   1640   1642 2
  1556   1642   1643 2
  1557   1041   1023 1
  1558   1042   1023 1
  1559   1043   1024 1
  1560   1044   1026 1
  1561   1045   1028 1
  1562   1046   1028 1
  1563   1047   1029 1
  1564   1048   1031 1
  1565   1049   1036 1
  1566   1072   1056 1
  1567   1073   1056 1
  1568   1074   1057 1
  1569   1075   1059 1
  1570   1076   1061 1
  1571   1077   1061 1
  1572   1078   1062 1
  1573   1079   1066 1
  1574   1080   1071 1
  1575   1106   1088 1
  1576   1107   1088 1
  1577   1108   1089 1
  1578   1109   1091 1
  1579   1110   1093 1
  1580   1111   1093 1
  1581   1112   1094 1
  1582   1113   1096 1
  1583   1114   1101 1
  1584   1138   1121 1
  1585   1139   1121 1
  1586   1140   1122 1
  1587   1141   1124 1
  1588   1142   1126 1
  1589   1143   1126 1
  1590   1144   1127 1
  1591   1145   1129 1
  1592   1146   1135 1
  1593   1170   1153 1
  1594   1171   1153 1
  1595   1172   1154 1
  1596   1173   1156 1
  1597   1174   1158 1
  1598   1175   1158 1
  1599   1176   1159 1
  1600   1177   1161 1
  1601   1178   1167 1
  1602   1201   1185 1
  1603   1202   1185 1
  1604   1203   1186 1
  1605   1204   1188 1
  1606   1205   1190 1
  1607   1206   1190 1
  1608   1207   1191 1
  1609   1208   1195 1
  1610   1209   1200 1
  1611   1233   1217 1
  1612   1234   1217 1
  1613   1235   1218 1
  1614   1236   1220 1
  1615   1237   1222 1
  1616   1238   1222 1
  1617   1239   1223 1
  1618   1240   1227 1
  1619   1241   1232 1
  1620   1264   1249 1
  1621   1265   1249 1
  1622   1266   1250 1
  1623   1267   1252 1
  1624   1268   1254 1
  1625   1269   1254 1
  1626   1270   1255 1
  1627   1271   1262 1
  1628   1272   1263 1
  1629   1296   1279 1
  1630   1297   1279 1
  1631   1298   1280 1
  1632   1299   1282 1
  1633   1300   1284 1
  1634   1301   1284 1
  1635   1302   1285 1
  1636   1303   1287 1
  1637   1304   1293 1
  1638   1326   1311 1
  1639   1327   1311 1
  1640   1328   1312 1
  1641   1329   1314 1
  1642   1330   1316 1
  1643   1331   1316 1
  1644   1332   1317 1
  1645   1333   1324 1
  1646   1334   1325 1
  1647   1359   1341 1
  1648   1360   1341 1
  1649   1361   1342 1
  1650   1362   1344 1
  1651   1363   1346 1
  1652   1364   1346 1
  1653   1365   1347 1
  1654   1366   1349 1
  1655   1367   1354 1
  1656   1390   1374 1
  1657   1391   1374 1
  1658   1392   1375 1
  1659   1393   1377 1
  1660   1394   1379 1
  1661   1395   1379 1
  1662   1396   1380 1
  1663   1397   1384 1
  1664   1398   1389 1
  1665   1424   1406 1
  1666   1425   1406 1
  1667   1426   1407 1
  1668   1427   1409 1
  1669   1428   1411 1
  1670   1429   1411 1
  1671   1430   1412 1
  1672   1431   1414 1
  1673   1432   1419 1
  1674   1456   1439 1
  1675   1457   1439 1
  1676   1458   1440 1
  1677   1459   1442 1
  1678   1460   1444 1
  1679   1461   1444 1
  1680   1462   1445 1
  1681   1463   1447 1
  1682   1464   1453 1
  1683   1488   1471 1
  1684   1489   1471 1
  1685   1490   1472 1
  1686   1491   1474 1
  1687   1492   1476 1
  1688   1493   1476 1
  1689   1494   1477 1
  1690   1495   1479 1
  1691   1496   1485 1
  1692   1519   1503 1
  1693   1520   1503 1
  1694   1521   1504 1
  1695   1522   1506 1
  1696   1523   1508 1
  1697   1524   1508 1
  1698   1525   1509 1
  1699   1526   1513 1
  1700   1527   1518 1
  1701   1551   1535 1
  1702   1552   1535 1
  1703   1553   1536 1
  1704   1554   1538 1
  1705   1555   1540 1
  1706   1556   1540 1
  1707   1557   1541 1
  1708   1558   1545 1
  1709   1559   1550 1
  1710   1582   1567 1
  1711   1583   1567 1
  1712   1584   1568 1
  1713   1585   1570 1
  1714   1586   1572 1
  1715   1587   1572 1
  1716   1588   1573 1
  1717   1589   1580 1
  1718   1590   1581 1
  1719   1614   1597 1
  1720   1615   1597 1
  1721   1616   1598 1
  1722   1617   1600 1
  1723   1618   1602 1
  1724   1619   1602 1
  1725   1620   1603 1
  1726   1621   1605 1
  1727   1622   1611 1
  1728   1644   1629 1
  1729   1645   1629 1
  1730   1646   1630 1
  1731   1647   1632 1
  1732   1648   1634 1
  1733   1649   1634 1
  1734   1650   1635 1
  1735   1651   1642 1
  1736   1652   1643 1
  1737   1050   1038 1
  1738   1051   1038 1
  1739   1115   1103 1
  1740   1116   1103 1
  1741   1273   1261 1
  1742   1274   1261 1
  1743   1335   1323 1
  1744   1336   1323 1
  1745   1368   1356 1
  1746   1369   1356 1
  1747   1433   1421 1
  1748   1434   1421 1
  1749   1591   1579 1
  1750   1592   1579 1
  1751   1653   1641 1
  1752   1654   1641 1
  1753   1147   1133 1
  1754   1148   1133 1
  1755   1179   1165 1
  1756   1180   1165 1
  1757   1305   1291 1
  1758   1306   1291 1
  1759   1465   1451 1
  1760   1466   1451 1
  1761   1497   1483 1
  1762   1498   1483 1
  1763   1623   1609 1
  1764   1624   1609 1
  1765   1081   1070 1
  1766   1082   1070 1
  1767   1083   1070 1
  1768   1210   1199 1
  1769   1211   1199 1
  1770   1212   1199 1
  1771   1242   1231 1
  1772   1243   1231 1
  1773   1244   1231 1
  1774   1399   1388 1
  1775   1400   1388 1
  1776   1401   1388 1
  1777   1528   1517 1
  1778   1529   1517 1
  1779   1530   1517 1
  1780   1560   1549 1
  1781   1561   1549 1
  1782   1562   1549 1
  1783   1315   1655 1
  1784   1337   2079 1
  1785   1663   1688 1
  1786   1696   1720 1
  1787   1728   1753 1
  1788   1761   1785 1
  1789   1793   1817 1
  1790   1825   1849 1
  1791   1889   1913 1
  1792   1921   1945 1
  1793   1953   1977 1
  1794   1985   2009 1
  1795   2017   2039 1
  1796   2047   2071 1
  1797   1655   1656 1
  1798   1655   1657 1
  1799   1655   1658 1
  1800   1658   1659 1
  1801   1659   1660 1
  1802   1660   1661 1
  1803   1660   1662 1
  1804   1661   1665 1
  1805   1662   1663 1
  1806   1662   1664 1
  1807   1664   1665 1
  1808   1665   1666 1
  1809   1666   1667 ar
  1810   1666   1676 ar
  1811   1667   1668 ar
  1812   1668   1669 ar
  1813   1669   1670 1
  1814   1669   1676 ar
  1815   1670   1671 2
  1816   1670   1672 am
  1817   1672   1673 1
  1818   1673   1674 2
  1819   1673   1675 2
  1820   1675   1676 1
  1821   1688   1689 1
  1822   1688   1690 1
  1823   1688   1691 1
  1824   1691   1692 1
  1825   1692   1693 1
  1826   1693   1694 1
  1827   1693   1695 1
  1828   1694   1698 1
  1829   1695   1696 1
  1830   1695   1697 1
  1831   1697   1698 1
  1832   1698   1699 1
  1833   1699   1700 am
  1834   1699   1707 1
  1835   1700   1701 2
  1836   1700   1702 am
  1837   1702   1703 am
  1838   1703   1704 2
  1839   1703   1705 1
  1840   1705   1706 1
  1841   1705   1707 2
  1842   1720   1721 1
  1843   1720   1722 1
  1844   1720   1723 1
  1845   1723   1724 1
  1846   1724   1725 1
  1847   1725   1726 1
  1848   1725   1727 1
  1849   1726   1730 1
  1850   1727   1728 1
  1851   1727   1729 1
  1852   1729   1730 1
  1853   1730   1731 1
  1854   1731   1732 ar
  1855   1731   1741 ar
  1856   1732   1733 ar
  1857   1733   1734 ar
  1858   1734   1735 1
  1859   1734   1741 ar
  1860   1735   1736 2
  1861   1735   1737 am
  1862   1737   1738 1
  1863   1738   1739 2
  1864   1738   1740 2
  1865   1740   1741 1
  1866   1753   1754 1
  1867   1753   1755 1
  1868   1753   1756 1
  1869   1756   1757 1
  1870   1757   1758 1
  1871   1758   1759 1
  1872   1758   1760 1
  1873   1759   1763 1
  1874   1760   1761 1
  1875   1760   1762 1
  1876   1762   1763 1
  1877   1763   1764 1
  1878   1764   1765 ar
  1879   1764   1773 ar
  1880   1765   1766 ar
  1881   1766   1767 ar
  1882   1767   1768 ar
  1883   1767   1773 ar
  1884   1768   1769 1
  1885   1768   1770 ar
  1886   1770   1771 ar
  1887   1771   1772 ar
  1888   1772   1773 ar
  1889   1785   1786 1
  1890   1785   1787 1
  1891   1785   1788 1
  1892   1788   1789 1
  1893   1789   1790 1
  1894   1790   1791 1
  1895   1790   1792 1
  1896   1791   1795 1
  1897   1792   1793 1
  1898   1792   1794 1
  1899   1794   1795 1
  1900   1795   1796 1
  1901   1796   1797 ar
  1902   1796   1805 ar
  1903   1797   1798 ar
  1904   1798   1799 ar
  1905   1799   1800 ar
  1906   1799   1805 ar
  1907   1800   1801 1
  1908   1800   1802 ar
  1909   1802   1803 ar
  1910   1803   1804 ar
  1911   1804   1805 ar
  1912   1817   1818 1
  1913   1817   1819 1
  1914   1817   1820 1
  1915   1820   1821 1
  1916   1821   1822 1
  1917   1822   1823 1
  1918   1822   1824 1
  1919   1823   1827 1
  1920   1824   1825 1
  1921   1824   1826 1
  1922   1826   1827 1
  1923   1827   1828 1
  1924   1828   1829 am
  1925   1828   1836 1
  1926   1829   1830 2
  1927   1829   1831 am
  1928   1831   1832 am
  1929   1832   1833 2
  1930   1832   1834 1
  1931   1834   1835 1
  1932   1834   1836 2
  1933   1849   1850 1
  1934   1849   1851 1
  1935   1849   1852 1
  1936   1852   1853 1
  1937   1853   1854 1
  1938   1854   1855 1
  1939   1854   1856 1
  1940   1855   1859 1
  1941   1856   1857 1
  1942   1856   1858 1
  1943   1858   1859 1
  1944   1859   1860 1
  1945   1860   1861 am
  1946   1860   1868 1
  1947   1861   1862 2
  1948   1861   1863 am
  1949   1863   1864 am
  1950   1864   1865 2
  1951   1864   1866 1
  1952   1866   1867 1
  1953   1866   1868 2
  1954   1881   1882 1
  1955   1881   1883 1
  1956   1881   1884 1
  1957   1884   1885 1
  1958   1885   1886 1
  1959   1886   1887 1
  1960   1886   1888 1
  1961   1887   1891 1
  1962   1888   1889 1
  1963   1888   1890 1
  1964   1890   1891 1
  1965   1891   1892 1
  1966   1892   1893 ar
  1967   1892   1901 ar
  1968   1893   1894 ar
  1969   1894   1895 ar
  1970   1895   1896 ar
  1971   1895   1901 ar
  1972   1896   1897 1
  1973   1896   1898 ar
  1974   1898   1899 ar
  1975   1899   1900 ar
  1976   1900   1901 ar
  1977   1913   1914 1
  1978   1913   1915 1
  1979   1913   1916 1
  1980   1916   1917 1
  1981   1917   1918 1
  1982   1918   1919 1
  1983   1918   1920 1
  1984   1919   1923 1
  1985   1920   1921 1
  1986   1920   1922 1
  1987   1922   1923 1
  1988   1923   1924 1
  1989   1924   1925 ar
  1990   1924   1933 ar
  1991   1925   1926 ar
  1992   1926   1927 ar
  1993   1927   1928 ar
  1994   1927   1933 ar
  1995   1928   1929 1
  1996   1928   1930 ar
  1997   1930   1931 ar
  1998   1931   1932 ar
  1999   1932   1933 ar
  2000   1945   1946 1
  2001   1945   1947 1
  2002   1945   1948 1
  2003   1948   1949 1
  2004   1949   1950 1
  2005   1950   1951 1
  2006   1950   1952 1
  2007   1951   1955 1
  2008   1952   1953 1
  2009   1952   1954 1
  2010   1954   1955 1
  2011   1955   1956 1
  2012   1956   1957 am
  2013   1956   1964 1
  2014   1957   1958 2
  2015   1957   1959 am
  2016   1959   1960 am
  2017   1960   1961 2
  2018   1960   1962 1
  2019   1962   1963 1
  2020   1962   1964 2
  2021   1977   1978 1
  2022   1977   1979 1
  2023   1977   1980 1
  2024   1980   1981 1
  2025   1981   1982 1
  2026   1982   1983 1
  2027   1982   1984 1
  2028   1983   1987 1
  2029   1984   1985 1
  2030   1984   1986 1
  2031   1986   1987 1
  2032   1987   1988 1
  2033   1988   1989 am
  2034   1988   1996 1
  2035   1989   1990 2
  2036   1989   1991 am
  2037   1991   1992 am
  2038   1992   1993 2
  2039   1992   1994 1
  2040   1994   1995 1
  2041   1994   1996 2
  2042   2009   2010 1
  2043   2009   2011 1
  2044   2009   2012 1
  2045   2012   2013 1
  2046   2013   2014 1
  2047   2014   2015 1
  2048   2014   2016 1
  2049   2015   2019 1
  2050   2016   2017 1
  2051   2016   2018 1
  2052   2018   2019 1
  2053   2019   2020 1
  2054   2020   2021 am
  2055   2020   2027 1
  2056   2021   2022 2
  2057   2021   2023 1
  2058   2023   2024 2
  2059   2024   2025 2
  2060   2024   2026 2
  2061   2026   2027 2
  2062   2039   2040 1
  2063   2039   2041 1
  2064   2039   2042 1
  2065   2042   2043 1
  2066   2043   2044 1
  2067   2044   2045 1
  2068   2044   2046 1
  2069   2045   2049 1
  2070   2046   2047 1
  2071   2046   2048 1
  2072   2048   2049 1
  2073   2049   2050 1
  2074   2050   2051 ar
  2075   2050   2059 ar
  2076   2051   2052 ar
  2077   2052   2053 ar
  2078   2053   2054 ar
  2079   2053   2059 ar
  2080   2054   2055 1
  2081   2054   2056 ar
  2082   2056   2057 ar
  2083   2057   2058 ar
  2084   2058   2059 ar
  2085   2071   2072 1
  2086   2071   2073 1
  2087   2071   2074 1
  2088   2074   2075 1
  2089   2075   2076 1
  2090   2076   2077 1
  2091   2076   2078 1
  2092   2077   2081 1
  2093   2078   2079 1
  2094   2078   2080 1
  2095   2080   2081 1
  2096   2081   2082 1
  2097   2082   2083 am
  2098   2082   2089 1
  2099   2083   2084 2
  2100   2083   2085 1
  2101   2085   2086 2
  2102   2086   2087 2
  2103   2086   2088 2
  2104   2088   2089 2
  2105   1677   1659 1
  2106   1678   1659 1
  2107   1679   1660 1
  2108   1680   1662 1
  2109   1681   1664 1
  2110   1682   1664 1
  2111   1683   1665 1
  2112   1684   1667 1
  2113   1685   1672 1
  2114   1708   1692 1
  2115   1709   1692 1
  2116   1710   1693 1
  2117   1711   1695 1
  2118   1712   1697 1
  2119   1713   1697 1
  2120   1714   1698 1
  2121   1715   1702 1
  2122   1716   1707 1
  2123   1742   1724 1
  2124   1743   1724 1
  2125   1744   1725 1
  2126   1745   1727 1
  2127   1746   1729 1
  2128   1747   1729 1
  2129   1748   1730 1
  2130   1749   1732 1
  2131   1750   1737 1
  2132   1774   1757 1
  2133   1775   1757 1
  2134   1776   1758 1
  2135   1777   1760 1
  2136   1778   1762 1
  2137   1779   1762 1
  2138   1780   1763 1
  2139   1781   1765 1
  2140   1782   1771 1
  2141   1806   1789 1
  2142   1807   1789 1
  2143   1808   1790 1
  2144   1809   1792 1
  2145   1810   1794 1
  2146   1811   1794 1
  2147   1812   1795 1
  2148   1813   1797 1
  2149   1814   1803 1
  2150   1837   1821 1
  2151   1838   1821 1
  2152   1839   1822 1
  2153   1840   1824 1
  2154   1841   1826 1
  2155   1842   1826 1
  2156   1843   1827 1
  2157   1844   1831 1
  2158   1845   1836 1
  2159   1869   1853 1
  2160   1870   1853 1
  2161   1871   1854 1
  2162   1872   1856 1
  2163   1873   1858 1
  2164   1874   1858 1
  2165   1875   1859 1
  2166   1876   1863 1
  2167   1877   1868 1
  2168   1902   1885 1
  2169   1903   1885 1
  2170   1904   1886 1
  2171   1905   1888 1
  2172   1906   1890 1
  2173   1907   1890 1
  2174   1908   1891 1
  2175   1909   1893 1
  2176   1910   1899 1
  2177   1934   1917 1
  2178   1935   1917 1
  2179   1936   1918 1
  2180   1937   1920 1
  2181   1938   1922 1
  2182   1939   1922 1
  2183   1940   1923 1
  2184   1941   1925 1
  2185   1942   1931 1
  2186   1965   1949 1
  2187   1966   1949 1
  2188   1967   1950 1
  2189   1968   1952 1
  2190   1969   1954 1
  2191   1970   1954 1
  2192   1971   1955 1
  2193   1972   1959 1
  2194   1973   1964 1
  2195   1997   1981 1
  2196   1998   1981 1
  2197   1999   1982 1
  2198   2000   1984 1
  2199   2001   1986 1
  2200   2002   1986 1
  2201   2003   1987 1
  2202   2004   1991 1
  2203   2005   1996 1
  2204   2028   2013 1
  2205   2029   2013 1
  2206   2030   2014 1
  2207   2031   2016 1
  2208   2032   2018 1
  2209   2033   2018 1
  2210   2034   2019 1
  2211   2035   2026 1
  2212   2036   2027 1
  2213   2060   2043 1
  2214   2061   2043 1
  2215   2062   2044 1
  2216   2063   2046 1
  2217   2064   2048 1
  2218   2065   2048 1
  2219   2066   2049 1
  2220   2067   2051 1
  2221   2068   2057 1
  2222   2090   2075 1
  2223   2091   2075 1
  2224   2092   2076 1
  2225   2093   2078 1
  2226   2094   2080 1
  2227   2095   2080 1
  2228   2096   2081 1
  2229   2097   2088 1
  2230   2098   2089 1
  2231   1686   1674 1
  2232   1687   1674 1
  2233   1751   1739 1
  2234   1752   1739 1
  2235   2037   2025 1
  2236   2038   2025 1
  2237   2099   2087 1
  2238   2100   2087 1
  2239   1783   1769 1
  2240   1784   1769 1
  2241   1815   1801 1
  2242   1816   1801 1
  2243   1911   1897 1
  2244   1912   1897 1
  2245   1943   1929 1
  2246   1944   1929 1
  2247   2069   2055 1
  2248   2070   2055 1
  2249   1717   1706 1
  2250   1718   1706 1
  2251   1719   1706 1
  2252   1846   1835 1
  2253   1847   1835 1
  2254   1848   1835 1
  2255   1878   1867 1
  2256   1879   1867 1
  2257   1880   1867 1
  2258   1974   1963 1
  2259   1975   1963 1
  2260   1976   1963 1
  2261   2006   1995 1
  2262   2007   1995 1
  2263   2008   1995 1
@<TRIPOS>MOLECULE
dna-seg-08-bp33
2098 2261 1 0 0
BIOPOLYMER
NO_CHARGES


@<TRIPOS>ATOM
      1 P         -7.1964    -5.6108   850.9944 P.3      268 DC      0.0000
      2 OP1       -7.2536    -6.6862   849.9265 O.co2    268 DC      0.0000
      3 OP2       -8.4511    -5.3677   851.7294 O.co2    268 DC      0.0000
      4 O5'       -5.8112    -5.8539   851.8205 O.3      268 DC      0.0000
      5 C5'       -4.7638    -5.6720   850.7982 C.3      268 DC      0.0000
      6 C4'       -3.4398    -5.8091   851.4947 C.3      268 DC      0.0000
      7 O4'       -2.8332    -4.5786   851.7416 O.3      268 DC      0.0000
      8 C3'       -3.4688    -6.6188   852.7862 C.3      268 DC      0.0000
      9 O3'       -2.5572    -7.7066   852.7065 O.3      268 DC      0.0000
     10 C2'       -3.2125    -5.5343   853.8349 C.3      268 DC      0.0000
     11 C1'       -2.3892    -4.5244   853.1385 C.3      268 DC      0.0000
     12 N1        -2.6356    -3.1176   853.4706 N.am     268 DC      0.0000
     13 C2        -1.5044    -2.3457   853.7264 C.2      268 DC      0.0000
     14 O2        -0.3743    -2.8433   853.7309 O.2      268 DC      0.0000
     15 N3        -1.6961    -1.0140   854.0003 N.2      268 DC      0.0000
     16 C4        -2.9410    -0.4568   853.9903 C.2      268 DC      0.0000
     17 N4        -3.0232     0.8398   854.2672 N.pl3    268 DC      0.0000
     18 C5        -4.0771    -1.2484   853.7123 C.2      268 DC      0.0000
     19 C6        -3.8724    -2.5551   853.4475 C.2      268 DC      0.0000
     20 H5'       -4.8599    -6.4339   850.0246 H        268 DC      0.0000
     21 H5''      -4.8477    -4.6803   850.3540 H        268 DC      0.0000
     22 H4'       -2.7838    -6.3450   850.8087 H        268 DC      0.0000
     23 H3'       -4.4744    -7.0141   852.9295 H        268 DC      0.0000
     24 H2'       -4.1521    -5.0972   854.1728 H        268 DC      0.0000
     25 H2''      -2.6642    -5.9497   854.6805 H        268 DC      0.0000
     26 H1'       -1.3288    -4.7635   853.2195 H        268 DC      0.0000
     27 H5        -5.0704    -0.8244   853.7117 H        268 DC      0.0000
     28 H6        -4.7225    -3.1769   853.2085 H        268 DC      0.0000
     29 H41       -2.1856     1.3678   854.4664 H        268 DC      0.0000
     30 H42       -3.9234     1.2977   854.2785 H        268 DC      0.0000
     31 P         -2.5432    -9.0207   853.6585 P.3      269 DA      0.0000
     32 OP1       -1.8907   -10.1362   852.8648 O.co2    269 DA      0.0000
     33 OP2       -3.9427    -9.3429   854.0041 O.co2    269 DA      0.0000
     34 O5'       -1.6405    -8.5612   854.9555 O.3      269 DA      0.0000
     35 C5'       -0.3244    -8.0011   854.6603 C.3      269 DA      0.0000
     36 C4'        0.3390    -7.5376   855.9156 C.3      269 DA      0.0000
     37 O4'        0.2637    -6.1295   856.1577 O.3      269 DA      0.0000
     38 C3'       -0.2267    -8.1218   857.2208 C.3      269 DA      0.0000
     39 O3'        0.7524    -7.9676   858.2508 O.3      269 DA      0.0000
     40 C2'       -1.4081    -7.1548   857.4354 C.3      269 DA      0.0000
     41 C1'       -0.6092    -5.8600   857.2522 C.3      269 DA      0.0000
     42 N9        -1.5294    -4.7393   857.1578 N.ar     269 DA      0.0000
     43 C8        -2.8916    -4.7127   857.0420 C.ar     269 DA      0.0000
     44 N7        -3.4265    -3.5050   857.0234 N.ar     269 DA      0.0000
     45 C5        -2.3240    -2.6692   857.1309 C.ar     269 DA      0.0000
     46 C6        -2.2025    -1.2582   857.1655 C.ar     269 DA      0.0000
     47 N6        -3.2170    -0.4167   857.0802 N.pl3    269 DA      0.0000
     48 N1        -0.9353    -0.7668   857.2980 N.ar     269 DA      0.0000
     49 C2         0.1461    -1.6033   857.3782 C.ar     269 DA      0.0000
     50 N3         0.1124    -2.9334   857.3484 N.ar     269 DA      0.0000
     51 C4        -1.1531    -3.4037   857.2254 C.ar     269 DA      0.0000
     52 H5'        0.2934    -8.7655   854.1892 H        269 DA      0.0000
     53 H5''      -0.4362    -7.1576   853.9790 H        269 DA      0.0000
     54 H4'        1.3927    -7.8103   855.8567 H        269 DA      0.0000
     55 H3'       -0.5512    -9.1561   857.1072 H        269 DA      0.0000
     56 H2'       -2.1891    -7.2747   856.6847 H        269 DA      0.0000
     57 H2''      -1.8104    -7.2351   858.4453 H        269 DA      0.0000
     58 H1'        0.0038    -5.7159   858.1418 H        269 DA      0.0000
     59 H8        -3.4858    -5.6118   856.9710 H        269 DA      0.0000
     60 H2         1.1170    -1.1402   857.4747 H        269 DA      0.0000
     61 H61       -3.3291     0.5708   857.2603 H        269 DA      0.0000
     62 H62       -4.0690    -0.8583   856.7655 H        269 DA      0.0000
     63 P          1.9821    -8.9818   858.3912 P.3      270 DC      0.0000
     64 OP1        2.2506    -9.7556   857.1461 O.co2    270 DC      0.0000
     65 OP2        1.5462    -9.8525   859.5341 O.co2    270 DC      0.0000
     66 O5'        3.2139    -8.0242   858.6744 O.3      270 DC      0.0000
     67 C5'        3.9083    -7.3419   857.5867 C.3      270 DC      0.0000
     68 C4'        4.4182    -6.0798   858.2916 C.3      270 DC      0.0000
     69 O4'        3.2943    -5.2897   858.6036 O.3      270 DC      0.0000
     70 C3'        5.1502    -6.3596   859.6015 C.3      270 DC      0.0000
     71 O3'        6.4458    -5.7220   859.6694 O.3      270 DC      0.0000
     72 C2'        4.1754    -5.8713   860.6837 C.3      270 DC      0.0000
     73 C1'        3.4762    -4.7626   860.0076 C.3      270 DC      0.0000
     74 N1         2.1069    -4.3966   860.3604 N.am     270 DC      0.0000
     75 C2         1.8337    -3.0302   860.3335 C.2      270 DC      0.0000
     76 O2         2.6971    -2.1869   860.1266 O.2      270 DC      0.0000
     77 N3         0.5544    -2.6438   860.5866 N.2      270 DC      0.0000
     78 C4        -0.4415    -3.5324   860.8200 C.2      270 DC      0.0000
     79 N4        -1.6539    -3.0321   861.0509 N.pl3    270 DC      0.0000
     80 C5        -0.1528    -4.9248   860.8265 C.2      270 DC      0.0000
     81 C6         1.1117    -5.2987   860.5771 C.2      270 DC      0.0000
     82 H5'        4.7321    -7.9429   857.2018 H        270 DC      0.0000
     83 H5''       3.2134    -7.0833   856.7877 H        270 DC      0.0000
     84 H4'        5.0748    -5.5281   857.6190 H        270 DC      0.0000
     85 H3'        5.2824    -7.4364   859.7074 H        270 DC      0.0000
     86 H2'        3.4790    -6.6592   860.9707 H        270 DC      0.0000
     87 H2''       4.7208    -5.5062   861.5540 H        270 DC      0.0000
     88 H1'        4.1086    -3.8749   859.9943 H        270 DC      0.0000
     89 H5        -0.9234    -5.6550   861.0250 H        270 DC      0.0000
     90 H6         1.3475    -6.3522   860.5474 H        270 DC      0.0000
     91 H41       -1.7983    -2.0326   861.0399 H        270 DC      0.0000
     92 H42       -2.4291    -3.6524   861.2371 H        270 DC      0.0000
     93 P         -5.3667     6.5761   862.6289 P.3      270 DG      0.0000
     94 OP1       -6.3564     7.6831   862.8077 O.co2    270 DG      0.0000
     95 OP2       -5.7690     5.5858   861.5441 O.co2    270 DG      0.0000
     96 O5'       -3.8642     7.2156   862.4217 O.3      270 DG      0.0000
     97 C5'       -2.8938     7.1290   863.5175 C.3      270 DG      0.0000
     98 C4'       -1.5297     6.8674   862.8832 C.3      270 DG      0.0000
     99 O4'       -1.2492     5.4976   862.7874 O.3      270 DG      0.0000
    100 C3'       -1.3671     7.4380   861.4769 C.3      270 DG      0.0000
    101 O3'       -0.0641     8.0063   861.2099 O.3      270 DG      0.0000
    102 C2'       -1.6482     6.2229   860.5746 C.3      270 DG      0.0000
    103 C1'       -1.0266     5.1074   861.3984 C.3      270 DG      0.0000
    104 N9        -1.6829     3.8175   861.1251 N.ar     270 DG      0.0000
    105 C8        -3.0258     3.5689   860.9684 C.ar     270 DG      0.0000
    106 N7        -3.3114     2.3128   860.7500 N.ar     270 DG      0.0000
    107 C5        -2.0720     1.6842   860.7748 C.ar     270 DG      0.0000
    108 C6        -1.7093     0.3198   860.6184 C.2      270 DG      0.0000
    109 O6        -2.4778    -0.6323   860.4215 O.2      270 DG      0.0000
    110 N1        -0.3601     0.0801   860.7053 N.am     270 DG      0.0000
    111 C2         0.5455     1.0644   860.9260 C.2      270 DG      0.0000
    112 N2         1.8179     0.6816   860.9893 N.pl3    270 DG      0.0000
    113 N3         0.2576     2.3622   861.0837 N.2      270 DG      0.0000
    114 C4        -1.0664     2.5966   861.0004 C.ar     270 DG      0.0000
    115 H5'       -2.8742     8.0653   864.0753 H        270 DG      0.0000
    116 H5''      -3.1576     6.3066   864.1824 H        270 DG      0.0000
    117 H4'       -0.7707     7.3219   863.5199 H        270 DG      0.0000
    118 H3'       -2.1313     8.1964   861.3064 H        270 DG      0.0000
    119 H2'       -2.7176     6.0681   860.4319 H        270 DG      0.0000
    120 H2''      -1.1400     6.3262   859.6158 H        270 DG      0.0000
    121 H1'        0.0416     5.0377   861.1932 H        270 DG      0.0000
    122 H8        -3.7775     4.3426   861.0212 H        270 DG      0.0000
    123 H1        -0.0289    -0.8682   860.6005 H        270 DG      0.0000
    124 H21        2.0584    -0.2926   860.8742 H        270 DG      0.0000
    125 H22        2.5434     1.3650   861.1525 H        270 DG      0.0000
    126 P          0.4270     7.9297   859.6864 P.3      269 DT      0.0000
    127 OP1        1.3669     9.0381   859.2955 O.co2    269 DT      0.0000
    128 OP2       -0.8747     8.0567   858.9859 O.co2    269 DT      0.0000
    129 O5'        1.1632     6.5126   859.5555 O.3      269 DT      0.0000
    130 C5'        2.6019     6.4900   859.8231 C.3      269 DT      0.0000
    131 C4'        3.2111     5.3300   859.0661 C.3      269 DT      0.0000
    132 O4'        2.3736     4.1880   859.0388 O.3      269 DT      0.0000
    133 C3'        3.5095     5.6583   857.6114 C.3      269 DT      0.0000
    134 O3'        4.7347     5.0760   857.1163 O.3      269 DT      0.0000
    135 C2'        2.2960     5.1171   856.8885 C.3      269 DT      0.0000
    136 C1'        2.0994     3.8266   857.6666 C.3      269 DT      0.0000
    137 N1         0.6845     3.4520   857.5153 N.am     269 DT      0.0000
    138 C2         0.3930     2.0960   857.6221 C.2      269 DT      0.0000
    139 O2         1.2892     1.2805   857.8118 O.2      269 DT      0.0000
    140 N3        -0.9180     1.7281   857.5019 N.am     269 DT      0.0000
    141 C4        -1.9059     2.6411   857.2843 C.2      269 DT      0.0000
    142 O4        -3.0996     2.2024   857.1868 O.2      269 DT      0.0000
    143 C5        -1.5765     4.0226   857.1780 C.2      269 DT      0.0000
    144 C7        -2.6585     5.0387   856.9490 C.3      269 DT      0.0000
    145 C6        -0.2944     4.3762   857.2997 C.2      269 DT      0.0000
    146 H5'        3.0529     7.4246   859.4894 H        269 DT      0.0000
    147 H5''       2.7740     6.3611   860.8917 H        269 DT      0.0000
    148 H4'        4.1466     5.0566   859.5540 H        269 DT      0.0000
    149 H3'        3.5494     6.7405   857.4874 H        269 DT      0.0000
    150 H2'        1.4374     5.7823   856.9801 H        269 DT      0.0000
    151 H2''       2.5228     4.9125   855.8421 H        269 DT      0.0000
    152 H1'        2.7655     3.0382   857.3160 H        269 DT      0.0000
    153 H3        -1.1616     0.7508   857.5766 H        269 DT      0.0000
    154 H6        -0.0266     5.4197   857.2256 H        269 DT      0.0000
    155 H71       -3.6224     4.5345   856.8803 H        269 DT      0.0000
    156 H72       -2.6760     5.7439   857.7799 H        269 DT      0.0000
    157 H73       -2.4623     5.5755   856.0209 H        269 DT      0.0000
    158 P          5.5688     6.2814   856.3379 P.3      268 DG      0.0000
    159 OP1        6.5683     6.9700   857.2091 O.co2    268 DG      0.0000
    160 OP2        4.4135     7.1203   855.9323 O.co2    268 DG      0.0000
    161 O5'        6.3767     5.4248   855.2571 O.3      268 DG      0.0000
    162 C5'        7.5606     4.7023   855.6805 C.3      268 DG      0.0000
    163 C4'        7.3211     3.2659   855.2328 C.3      268 DG      0.0000
    164 O4'        5.9825     2.9009   855.5035 O.3      268 DG      0.0000
    165 C3'        7.5715     3.0191   853.7451 C.3      268 DG      0.0000
    166 O3'        8.5185     1.9867   853.5366 O.3      268 DG      0.0000
    167 C2'        6.1900     2.7656   853.1684 C.3      268 DG      0.0000
    168 C1'        5.4276     2.2240   854.3545 C.3      268 DG      0.0000
    169 N9         3.9956     2.5092   854.2309 N.ar     268 DG      0.0000
    170 C8         3.3824     3.7196   854.0721 C.ar     268 DG      0.0000
    171 N7         2.0762     3.6432   853.9940 N.ar     268 DG      0.0000
    172 C5         1.8082     2.2844   854.1315 C.ar     268 DG      0.0000
    173 C6         0.5897     1.5556   854.1410 C.2      268 DG      0.0000
    174 O6        -0.5458     2.0096   854.0419 O.2      268 DG      0.0000
    175 N1         0.7359     0.2057   854.2900 N.am     268 DG      0.0000
    176 C2         1.9693    -0.3848   854.4228 C.2      268 DG      0.0000
    177 N2         1.9684    -1.7113   854.5585 N.pl3    268 DG      0.0000
    178 N3         3.1508     0.2407   854.4271 N.2      268 DG      0.0000
    179 C4         2.9899     1.5776   854.2764 C.ar     268 DG      0.0000
    180 H5'        8.4509     5.1100   855.2018 H        268 DG      0.0000
    181 H5''       7.6618     4.7471   856.7649 H        268 DG      0.0000
    182 H4'        7.9788     2.6123   855.8058 H        268 DG      0.0000
    183 H3'        7.9630     3.9370   853.3065 H        268 DG      0.0000
    184 H2'        5.7419     3.6892   852.8020 H        268 DG      0.0000
    185 H2''       6.2382     2.0220   852.3728 H        268 DG      0.0000
    186 H1'        5.5877     1.1494   854.4415 H        268 DG      0.0000
    187 H8         3.9235     4.6526   854.0160 H        268 DG      0.0000
    188 H1        -0.0890    -0.3769   854.3028 H        268 DG      0.0000
    189 H21        1.0948    -2.2182   854.5595 H        268 DG      0.0000
    190 H22        2.8412    -2.2091   854.6603 H        268 DG      0.0000
    191 P          8.6740    -5.0143   864.6705 P.3      271 DG      0.0000
    192 OP1        9.4509    -6.2784   864.6689 O.co2    271 DG      0.0000
    193 OP2        7.5702    -5.1739   865.7262 O.co2    271 DG      0.0000
    194 O5'        9.4976    -3.6647   864.8489 O.3      271 DG      0.0000
    195 C5'        9.8879    -2.6998   863.8489 C.3      271 DG      0.0000
    196 C4'        9.5037    -1.3224   864.3477 C.3      271 DG      0.0000
    197 O4'        8.2092    -0.9481   863.9285 O.3      271 DG      0.0000
    198 C3'        9.5663    -1.0661   865.8399 C.3      271 DG      0.0000
    199 O3'       10.3881     0.0910   866.1519 O.3      271 DG      0.0000
    200 C2'        8.1181    -0.9051   866.2618 C.3      271 DG      0.0000
    201 C1'        7.4353    -0.4194   865.0061 C.3      271 DG      0.0000
    202 N9         6.0380    -0.8884   864.9771 N.ar     271 DG      0.0000
    203 C8         5.5359    -2.1477   865.2059 C.ar     271 DG      0.0000
    204 N7         4.2275    -2.2281   865.1162 N.ar     271 DG      0.0000
    205 C5         3.8369    -0.9297   864.7992 C.ar     271 DG      0.0000
    206 C6         2.5611    -0.3565   864.5733 C.2      271 DG      0.0000
    207 O6         1.4618    -0.9107   864.5946 O.2      271 DG      0.0000
    208 N1         2.5658     0.9823   864.2918 N.am     271 DG      0.0000
    209 C2         3.6499     1.6873   864.2311 C.2      271 DG      0.0000
    210 N2         3.3782     2.8986   863.9344 N.pl3    271 DG      0.0000
    211 N3         4.9498     1.2153   864.4399 N.2      271 DG      0.0000
    212 C4         4.9371    -0.0974   864.7124 C.ar     271 DG      0.0000
    213 H5'       10.9652    -2.7477   863.6902 H        271 DG      0.0000
    214 H5''       9.3691    -2.9097   862.9135 H        271 DG      0.0000
    215 H4'       10.1956    -0.6200   863.8830 H        271 DG      0.0000
    216 H3'        9.9850    -1.9429   866.3338 H        271 DG      0.0000
    217 H2'        7.7000    -1.8571   866.5887 H        271 DG      0.0000
    218 H2''       8.0331    -0.1605   867.0532 H        271 DG      0.0000
    219 H1'        7.4576     0.6699   864.9742 H        271 DG      0.0000
    220 H8         6.1620    -2.9963   865.4390 H        271 DG      0.0000
    221 H1         1.6824     1.4419   864.1234 H        271 DG      0.0000
    222 H21        2.4191     3.1802   863.7900 H        271 DG      0.0000
    223 H22        4.1224     3.5755   863.8439 H        271 DG      0.0000
    224 P         10.4076     0.7629   867.5804 P.3      272 DT      0.0000
    225 OP1       11.7539     1.2056   868.0921 O.co2    272 DT      0.0000
    226 OP2       10.0047    -0.4050   868.4991 O.co2    272 DT      0.0000
    227 O5'        9.2932     1.8399   867.6090 O.3      272 DT      0.0000
    228 C5'        9.5591     3.2623   867.4650 C.3      272 DT      0.0000
    229 C4'        8.1932     3.9137   867.5225 C.3      272 DT      0.0000
    230 O4'        7.1546     2.9995   867.2474 O.3      272 DT      0.0000
    231 C3'        7.8070     4.5470   868.8352 C.3      272 DT      0.0000
    232 O3'        7.6846     5.9645   868.6470 O.3      272 DT      0.0000
    233 C2'        6.4717     3.9149   869.2275 C.3      272 DT      0.0000
    234 C1'        5.9437     3.5135   867.8747 C.3      272 DT      0.0000
    235 N1         4.9966     2.4026   867.9714 N.am     272 DT      0.0000
    236 C2         3.6721     2.6845   867.7734 C.2      272 DT      0.0000
    237 O2         3.2676     3.8202   867.5352 O.2      272 DT      0.0000
    238 N3         2.7931     1.6382   867.8545 N.am     272 DT      0.0000
    239 C4         3.1829     0.3689   868.1104 C.2      272 DT      0.0000
    240 O4         2.2605    -0.4866   868.1557 O.2      272 DT      0.0000
    241 C5         4.5736     0.0925   868.3101 C.2      272 DT      0.0000
    242 C7         5.0463    -1.2971   868.5900 C.3      272 DT      0.0000
    243 C6         5.4262     1.1219   868.2286 C.2      272 DT      0.0000
    244 H5'       10.1904     3.6199   868.2784 H        272 DT      0.0000
    245 H5''      10.0326     3.4624   866.5038 H        272 DT      0.0000
    246 H4'        8.1632     4.6900   866.7580 H        272 DT      0.0000
    247 H3'        8.5611     4.3322   869.5923 H        272 DT      0.0000
    248 H2'        6.6121     3.0503   869.8763 H        272 DT      0.0000
    249 H2''       5.8176     4.6498   869.6967 H        272 DT      0.0000
    250 H1'        5.5276     4.3605   867.3294 H        272 DT      0.0000
    251 H3         1.8096     1.8225   867.7170 H        272 DT      0.0000
    252 H6         6.4818     0.9411   868.3690 H        272 DT      0.0000
    253 H71        5.4772    -1.7241   867.6844 H        272 DT      0.0000
    254 H72        4.2044    -1.9084   868.9147 H        272 DT      0.0000
    255 H73        5.8018    -1.2725   869.3753 H        272 DT      0.0000
    256 P          8.2038     6.8237   869.9270 P.3      273 DG      0.0000
    257 OP1        8.8314     8.0134   869.2119 O.co2    273 DG      0.0000
    258 OP2        9.1499     6.0204   870.6805 O.co2    273 DG      0.0000
    259 O5'        6.7192     7.1216   870.5365 O.3      273 DG      0.0000
    260 C5'        5.8200     7.5523   869.4459 C.3      273 DG      0.0000
    261 C4'        4.4139     7.4935   869.9659 C.3      273 DG      0.0000
    262 O4'        3.7292     6.2828   869.7854 O.3      273 DG      0.0000
    263 C3'        4.3258     7.8334   871.4740 C.3      273 DG      0.0000
    264 O3'        3.3664     8.9065   871.6328 O.3      273 DG      0.0000
    265 C2'        3.9738     6.5136   872.1266 C.3      273 DG      0.0000
    266 C1'        3.1315     5.8473   871.0450 C.3      273 DG      0.0000
    267 N9         3.0997     4.3903   871.2145 N.ar     273 DG      0.0000
    268 C8         4.1215     3.5456   871.5507 C.ar     273 DG      0.0000
    269 N7         3.7797     2.2789   871.6365 N.ar     273 DG      0.0000
    270 C5         2.4265     2.2980   871.3065 C.ar     273 DG      0.0000
    271 C6         1.4758     1.2417   871.2121 C.2      273 DG      0.0000
    272 O6         1.6554     0.0299   871.4044 O.2      273 DG      0.0000
    273 N1         0.2047     1.6489   870.8771 N.am     273 DG      0.0000
    274 C2        -0.0972     2.9576   870.6533 C.2      273 DG      0.0000
    275 N2        -1.3833     3.1690   870.3445 N.pl3    273 DG      0.0000
    276 N3         0.7545     3.9781   870.7243 N.2      273 DG      0.0000
    277 C4         1.9968     3.5825   871.0509 C.ar     273 DG      0.0000
    278 H5'        6.0626     8.5716   869.1454 H        273 DG      0.0000
    279 H5''       5.9263     6.8813   868.5935 H        273 DG      0.0000
    280 H4'        3.8480     8.2592   869.4354 H        273 DG      0.0000
    281 H3'        5.3019     8.1643   871.8287 H        273 DG      0.0000
    282 H2'        4.8672     5.9303   872.3495 H        273 DG      0.0000
    283 H2''       3.3842     6.6752   873.0290 H        273 DG      0.0000
    284 H1'        2.1132     6.2317   871.1039 H        273 DG      0.0000
    285 H8         5.1286     3.8914   871.7314 H        273 DG      0.0000
    286 H1        -0.5260     0.9565   870.7947 H        273 DG      0.0000
    287 H21       -2.0251     2.3908   870.2943 H        273 DG      0.0000
    288 H22       -1.7112     4.1067   870.1618 H        273 DG      0.0000
    289 P          3.1130     9.5786   873.0213 P.3      274 DA      0.0000
    290 OP1        3.9821    10.7412   873.3766 O.co2    274 DA      0.0000
    291 OP2        3.5563     8.3642   873.9170 O.co2    274 DA      0.0000
    292 O5'        1.5506     9.6864   873.2704 O.3      274 DA      0.0000
    293 C5'        0.5503     9.6921   872.2413 C.3      274 DA      0.0000
    294 C4'       -0.5182     8.7204   872.7156 C.3      274 DA      0.0000
    295 O4'       -0.0497     7.3919   872.6253 O.3      274 DA      0.0000
    296 C3'       -1.0247     8.9165   874.1447 C.3      274 DA      0.0000
    297 O3'       -2.4659     8.8812   874.1970 O.3      274 DA      0.0000
    298 C2'       -0.3695     7.7410   874.8801 C.3      274 DA      0.0000
    299 C1'       -0.5041     6.6758   873.8025 C.3      274 DA      0.0000
    300 N9         0.3341     5.4946   874.0310 N.ar     274 DA      0.0000
    301 C8         1.6798     5.4012   874.2467 C.ar     274 DA      0.0000
    302 N7         2.1088     4.1697   874.4117 N.ar     274 DA      0.0000
    303 C5         0.9653     3.3977   874.2715 C.ar     274 DA      0.0000
    304 C6         0.7680     2.0003   874.3194 C.ar     274 DA      0.0000
    305 N6         1.7368     1.1082   874.5392 N.pl3    274 DA      0.0000
    306 N1        -0.5203     1.5870   874.1296 N.ar     274 DA      0.0000
    307 C2        -1.5179     2.4748   873.9119 C.ar     274 DA      0.0000
    308 N3        -1.4069     3.8014   873.8536 N.ar     274 DA      0.0000
    309 C4        -0.1325     4.1902   874.0405 C.ar     274 DA      0.0000
    310 H5'        0.9751     9.3597   871.2941 H        274 DA      0.0000
    311 H5''       0.1280    10.6912   872.1335 H        274 DA      0.0000
    312 H4'       -1.3729     8.8159   872.0459 H        274 DA      0.0000
    313 H3'       -0.6579     9.8612   874.5461 H        274 DA      0.0000
    314 H2'        0.6730     7.9434   875.1256 H        274 DA      0.0000
    315 H2''      -0.9366     7.4711   875.7710 H        274 DA      0.0000
    316 H1'       -1.5478     6.3829   873.6880 H        274 DA      0.0000
    317 H8         2.3321     6.2614   874.2788 H        274 DA      0.0000
    318 H2        -2.5074     2.0655   873.7705 H        274 DA      0.0000
    319 H61        2.7253     1.2914   874.4418 H        274 DA      0.0000
    320 H62        1.5380     0.1330   874.3677 H        274 DA      0.0000
    321 P         -3.3241     9.6928   875.3384 P.3      275 DA      0.0000
    322 OP1       -4.2151    10.7109   874.6714 O.co2    275 DA      0.0000
    323 OP2       -2.2373    10.2498   876.1693 O.co2    275 DA      0.0000
    324 O5'       -4.3325     8.5763   875.8693 O.3      275 DA      0.0000
    325 C5'       -5.3036     7.9339   875.0449 C.3      275 DA      0.0000
    326 C4'       -5.5067     6.5225   875.5672 C.3      275 DA      0.0000
    327 O4'       -4.3004     5.8132   875.5954 O.3      275 DA      0.0000
    328 C3'       -6.1498     6.3679   876.9345 C.3      275 DA      0.0000
    329 O3'       -7.4074     5.6972   876.8567 O.3      275 DA      0.0000
    330 C2'       -5.0779     5.6492   877.7633 C.3      275 DA      0.0000
    331 C1'       -4.2426     4.9399   876.7695 C.3      275 DA      0.0000
    332 N9        -2.8148     4.6897   877.0375 N.ar     275 DA      0.0000
    333 C8        -1.7694     5.5737   877.1527 C.ar     275 DA      0.0000
    334 N7        -0.6001     5.0032   877.3220 N.ar     275 DA      0.0000
    335 C5        -0.8868     3.6423   877.2850 C.ar     275 DA      0.0000
    336 C6        -0.0526     2.4945   877.4055 C.ar     275 DA      0.0000
    337 N6         1.2605     2.5133   877.5971 N.pl3    275 DA      0.0000
    338 N1        -0.6920     1.2840   877.3073 N.ar     275 DA      0.0000
    339 C2        -2.0423     1.2247   877.1182 C.ar     275 DA      0.0000
    340 N3        -2.8765     2.2525   877.0104 N.ar     275 DA      0.0000
    341 C4        -2.2343     3.4343   877.1022 C.ar     275 DA      0.0000
    342 H5'       -4.9487     7.8990   874.0149 H        275 DA      0.0000
    343 H5''      -6.2448     8.4817   875.0909 H        275 DA      0.0000
    344 H4'       -6.1552     6.0130   874.8545 H        275 DA      0.0000
    345 H3'       -6.3099     7.3595   877.3578 H        275 DA      0.0000
    346 H2'       -4.4801     6.3682   878.3236 H        275 DA      0.0000
    347 H2''      -5.5430     4.9352   878.4429 H        275 DA      0.0000
    348 H1'       -4.7223     3.9926   876.5234 H        275 DA      0.0000
    349 H8        -1.8988     6.6450   877.1079 H        275 DA      0.0000
    350 H2        -2.4780     0.2389   877.0490 H        275 DA      0.0000
    351 H61        1.7458     3.3369   877.9233 H        275 DA      0.0000
    352 H62        1.7927     1.6754   877.4103 H        275 DA      0.0000
    353 P         -8.6914     5.9823   877.8129 P.3      276 DT      0.0000
    354 OP1       -9.9908     5.9947   877.0156 O.co2    276 DT      0.0000
    355 OP2       -8.4680     7.1540   878.6335 O.co2    276 DT      0.0000
    356 O5'       -8.8185     4.5586   878.6266 O.3      276 DT      0.0000
    357 C5'       -8.5610     3.4338   877.6815 C.3      276 DT      0.0000
    358 C4'       -7.7072     2.4728   878.4693 C.3      276 DT      0.0000
    359 O4'       -6.3832     2.9179   878.6612 O.3      276 DT      0.0000
    360 C3'       -8.2600     2.2299   879.8859 C.3      276 DT      0.0000
    361 O3'       -9.0091     1.0287   879.8875 O.3      276 DT      0.0000
    362 C2'       -7.0249     2.2173   880.7831 C.3      276 DT      0.0000
    363 C1'       -5.9134     2.0981   879.8185 C.3      276 DT      0.0000
    364 N1        -4.5841     2.5804   880.1582 N.am     276 DT      0.0000
    365 C2        -3.5843     1.6226   880.2962 C.2      276 DT      0.0000
    366 O2        -3.8638     0.4339   880.2082 O.2      276 DT      0.0000
    367 N3        -2.3155     2.0481   880.5502 N.am     276 DT      0.0000
    368 C4        -1.9905     3.3690   880.6703 C.2      276 DT      0.0000
    369 O4        -0.7848     3.6855   880.9255 O.2      276 DT      0.0000
    370 C5        -3.0328     4.3386   880.4987 C.2      276 DT      0.0000
    371 C7        -2.7241     5.8075   880.5863 C.3      276 DT      0.0000
    372 C6        -4.2821     3.9136   880.2430 C.2      276 DT      0.0000
    373 H5'       -9.4959     2.9615   877.3799 H        276 DT      0.0000
    374 H5''      -8.0185     3.7918   876.8065 H        276 DT      0.0000
    375 H4'       -7.6793     1.5202   877.9401 H        276 DT      0.0000
    376 H3'       -8.9061     3.0604   880.1702 H        276 DT      0.0000
    377 H2'       -6.9482     3.1410   881.3565 H        276 DT      0.0000
    378 H2''      -7.0460     1.3550   881.4495 H        276 DT      0.0000
    379 H1'       -5.8367     1.0582   879.5012 H        276 DT      0.0000
    380 H3        -1.5850     1.3583   880.6539 H        276 DT      0.0000
    381 H6        -5.0672     4.6415   880.1008 H        276 DT      0.0000
    382 H71       -1.6640     5.9445   880.7993 H        276 DT      0.0000
    383 H72       -2.9689     6.2870   879.6385 H        276 DT      0.0000
    384 H73       -3.3160     6.2563   881.3841 H        276 DT      0.0000
    385 P         -9.9342     0.4550   880.9942 P.3      277 DT      0.0000
    386 OP1      -10.9586    -0.5352   880.3821 O.co2    277 DT      0.0000
    387 OP2      -10.6038     1.6221   881.6241 O.co2    277 DT      0.0000
    388 O5'       -8.9738    -0.4782   881.8765 O.3      277 DT      0.0000
    389 C5'       -8.5579    -1.6745   881.1647 C.3      277 DT      0.0000
    390 C4'       -7.3572    -2.2393   881.8409 C.3      277 DT      0.0000
    391 O4'       -6.2262    -1.3774   881.8175 O.3      277 DT      0.0000
    392 C3'       -7.5822    -2.6343   883.3075 C.3      277 DT      0.0000
    393 O3'       -6.9891    -3.8916   883.5715 O.3      277 DT      0.0000
    394 C2'       -6.7994    -1.5212   884.0438 C.3      277 DT      0.0000
    395 C1'       -5.5833    -1.5027   883.1403 C.3      277 DT      0.0000
    396 N1        -4.7285    -0.3684   883.4380 N.am     277 DT      0.0000
    397 C2        -3.3588    -0.5695   883.4928 C.2      277 DT      0.0000
    398 O2        -2.9147    -1.7030   883.3043 O.2      277 DT      0.0000
    399 N3        -2.5579     0.5052   883.7587 N.am     277 DT      0.0000
    400 C4        -3.0622     1.7524   883.9657 C.2      277 DT      0.0000
    401 O4        -2.2583     2.7022   884.1890 O.2      277 DT      0.0000
    402 C5        -4.4726     1.9484   883.9006 C.2      277 DT      0.0000
    403 C7        -5.1043     3.2937   884.1106 C.3      277 DT      0.0000
    404 C6        -5.2444     0.8819   883.6395 C.2      277 DT      0.0000
    405 H5'       -9.3645    -2.4077   881.1771 H        277 DT      0.0000
    406 H5''      -8.3112    -1.4197   880.1340 H        277 DT      0.0000
    407 H4'       -7.0816    -3.1461   881.3024 H        277 DT      0.0000
    408 H3'       -8.6401    -2.6244   883.5699 H        277 DT      0.0000
    409 H2'       -7.3314    -0.5699   884.0426 H        277 DT      0.0000
    410 H2''      -6.5357    -1.8261   885.0565 H        277 DT      0.0000
    411 H1'       -5.0286    -2.4379   883.2159 H        277 DT      0.0000
    412 H3        -1.5580     0.3696   883.8031 H        277 DT      0.0000
    413 H6        -6.3147     1.0164   883.5864 H        277 DT      0.0000
    414 H71       -4.3283     4.0329   884.3095 H        277 DT      0.0000
    415 H72       -5.6566     3.5790   883.2153 H        277 DT      0.0000
    416 H73       -5.7869     3.2462   884.9590 H        277 DT      0.0000
    417 P         -7.4559    -5.2610   884.1795 P.3      278 DC      0.0000
    418 OP1       -7.5643    -6.3325   883.1115 O.co2    278 DC      0.0000
    419 OP2       -8.6976    -4.9584   884.9144 O.co2    278 DC      0.0000
    420 O5'       -6.0839    -5.5700   885.0055 O.3      278 DC      0.0000
    421 C5'       -5.0289    -5.4383   883.9832 C.3      278 DC      0.0000
    422 C4'       -3.7131    -5.6384   884.6797 C.3      278 DC      0.0000
    423 O4'       -3.0484    -4.4382   884.9267 O.3      278 DC      0.0000
    424 C3'       -3.7806    -6.4457   885.9712 C.3      278 DC      0.0000
    425 O3'       -2.9220    -7.5758   885.8915 O.3      278 DC      0.0000
    426 C2'       -3.4729    -5.3748   887.0200 C.3      278 DC      0.0000
    427 C1'       -2.6023    -4.4052   886.3236 C.3      278 DC      0.0000
    428 N1        -2.7814    -2.9883   886.6557 N.am     278 DC      0.0000
    429 C2        -1.6146    -2.2712   886.9115 C.2      278 DC      0.0000
    430 O2        -0.5095    -2.8222   886.9159 O.2      278 DC      0.0000
    431 N3        -1.7426    -0.9319   887.1853 N.2      278 DC      0.0000
    432 C4        -2.9595    -0.3160   887.1754 C.2      278 DC      0.0000
    433 N4        -2.9797     0.9831   887.4522 N.pl3    278 DC      0.0000
    434 C5        -4.1320    -1.0525   886.8974 C.2      278 DC      0.0000
    435 C6        -3.9899    -2.3674   886.6326 C.2      278 DC      0.0000
    436 H5'       -5.1613    -6.1947   883.2096 H        278 DC      0.0000
    437 H5''      -5.0655    -4.4436   883.5390 H        278 DC      0.0000
    438 H4'       -3.0834    -6.2050   883.9938 H        278 DC      0.0000
    439 H3'       -4.8039    -6.7926   886.1145 H        278 DC      0.0000
    440 H2'       -4.3905    -4.8933   887.3579 H        278 DC      0.0000
    441 H2''      -2.9450    -5.8158   887.8655 H        278 DC      0.0000
    442 H1'       -1.5546    -4.6947   886.4045 H        278 DC      0.0000
    443 H5        -5.1039    -0.5815   886.8968 H        278 DC      0.0000
    444 H6        -4.8687    -2.9480   886.3935 H        278 DC      0.0000
    445 H41       -2.1179     1.4705   887.6514 H        278 DC      0.0000
    446 H42       -3.8571     1.4834   887.4635 H        278 DC      0.0000
    447 P         -2.9707    -8.8891   886.8436 P.3      279 DA      0.0000
    448 OP1       -2.3721   -10.0344   886.0498 O.co2    279 DA      0.0000
    449 OP2       -4.3840    -9.1442   887.1891 O.co2    279 DA      0.0000
    450 O5'       -2.0471    -8.4732   888.1406 O.3      279 DA      0.0000
    451 C5'       -0.7058    -7.9765   887.8454 C.3      279 DA      0.0000
    452 C4'       -0.0210    -7.5452   889.1006 C.3      279 DA      0.0000
    453 O4'       -0.0291    -6.1351   889.3428 O.3      279 DA      0.0000
    454 C3'       -0.6139    -8.1018   890.4059 C.3      279 DA      0.0000
    455 O3'        0.3715    -7.9944   891.4358 O.3      279 DA      0.0000
    456 C2'       -1.7478    -7.0795   890.6205 C.3      279 DA      0.0000
    457 C1'       -0.8881    -5.8242   890.4372 C.3      279 DA      0.0000
    458 N9        -1.7538    -4.6609   890.3429 N.ar     279 DA      0.0000
    459 C8        -3.1132    -4.5694   890.2270 C.ar     279 DA      0.0000
    460 N7        -3.5899    -3.3376   890.2084 N.ar     279 DA      0.0000
    461 C5        -2.4487    -2.5553   890.3160 C.ar     279 DA      0.0000
    462 C6        -2.2600    -1.1517   890.3505 C.ar     279 DA      0.0000
    463 N6        -3.2333    -0.2627   890.2652 N.pl3    279 DA      0.0000
    464 N1        -0.9708    -0.7213   890.4831 N.ar     279 DA      0.0000
    465 C2         0.0694    -1.6084   890.5633 C.ar     279 DA      0.0000
    466 N3        -0.0277    -2.9355   890.5334 N.ar     279 DA      0.0000
    467 C4        -1.3141    -3.3448   890.4104 C.ar     279 DA      0.0000
    468 H5'       -0.1251    -8.7696   887.3742 H        279 DA      0.0000
    469 H5''      -0.7771    -7.1286   887.1641 H        279 DA      0.0000
    470 H4'        1.0185    -7.8679   889.0417 H        279 DA      0.0000
    471 H3'       -0.9874    -9.1194   890.2922 H        279 DA      0.0000
    472 H2'       -2.5337    -7.1620   889.8697 H        279 DA      0.0000
    473 H2''      -2.1535    -7.1405   891.6304 H        279 DA      0.0000
    474 H1'       -0.2689    -5.7096   891.3268 H        279 DA      0.0000
    475 H8        -3.7495    -5.4391   890.1560 H        279 DA      0.0000
    476 H2         1.0613    -1.1922   890.6597 H        279 DA      0.0000
    477 H61       -3.2981     0.7290   890.4453 H        279 DA      0.0000
    478 H62       -4.1054    -0.6632   889.9505 H        279 DA      0.0000
    479 P          1.5513    -9.0662   891.5763 P.3      280 DC      0.0000
    480 OP1        1.7826    -9.8519   890.3312 O.co2    280 DC      0.0000
    481 OP2        1.0744    -9.9150   892.7192 O.co2    280 DC      0.0000
    482 O5'        2.8274    -8.1684   891.8594 O.3      280 DC      0.0000
    483 C5'        3.5535    -7.5200   890.7717 C.3      280 DC      0.0000
    484 C4'        4.1231    -6.2837   891.4767 C.3      280 DC      0.0000
    485 O4'        3.0382    -5.4409   891.7887 O.3      280 DC      0.0000
    486 C3'        4.8410    -6.5981   892.7866 C.3      280 DC      0.0000
    487 O3'        6.1655    -6.0230   892.8545 O.3      280 DC      0.0000
    488 C2'        3.8906    -6.0638   893.8688 C.3      280 DC      0.0000
    489 C1'        3.2450    -4.9230   893.1926 C.3      280 DC      0.0000
    490 N1         1.8948    -4.4921   893.5454 N.am     280 DC      0.0000
    491 C2         1.6870    -3.1143   893.5185 C.2      280 DC      0.0000
    492 O2         2.5897    -2.3131   893.3116 O.2      280 DC      0.0000
    493 N3         0.4276    -2.6673   893.7717 N.2      280 DC      0.0000
    494 C4        -0.6096    -3.5073   894.0050 C.2      280 DC      0.0000
    495 N4        -1.7967    -2.9498   894.2359 N.pl3    280 DC      0.0000
    496 C5        -0.3876    -4.9119   894.0116 C.2      280 DC      0.0000
    497 C6         0.8576    -5.3457   893.7621 C.2      280 DC      0.0000
    498 H5'        4.3478    -8.1596   890.3869 H        280 DC      0.0000
    499 H5''       2.8718    -7.2285   889.9727 H        280 DC      0.0000
    500 H4'        4.8053    -5.7639   890.8040 H        280 DC      0.0000
    501 H3'        4.9216    -7.6799   892.8925 H        280 DC      0.0000
    502 H2'        3.1574    -6.8176   894.1558 H        280 DC      0.0000
    503 H2''       4.4527    -5.7252   894.7390 H        280 DC      0.0000
    504 H1'        3.9191    -4.0665   893.1793 H        280 DC      0.0000
    505 H5        -1.1922    -5.6046   894.2101 H        280 DC      0.0000
    506 H6         1.0429    -6.4092   893.7324 H        280 DC      0.0000
    507 H41       -1.8932    -1.9445   894.2249 H        280 DC      0.0000
    508 H42       -2.6005    -3.5323   894.4221 H        280 DC      0.0000
    509 P         -5.0468     6.8247   895.8140 P.3      280 DG      0.0000
    510 OP1       -5.9826     7.9776   895.9928 O.co2    280 DG      0.0000
    511 OP2       -5.4959     5.8546   894.7292 O.co2    280 DG      0.0000
    512 O5'       -3.5156     7.3918   895.6068 O.3      280 DG      0.0000
    513 C5'       -2.5504     7.2590   896.7025 C.3      280 DG      0.0000
    514 C4'       -1.2004     6.9326   896.0682 C.3      280 DG      0.0000
    515 O4'       -0.9855     5.5509   895.9724 O.3      280 DG      0.0000
    516 C3'       -1.0107     7.4948   894.6619 C.3      280 DG      0.0000
    517 O3'        0.3180     8.0002   894.3949 O.3      280 DG      0.0000
    518 C2'       -1.3494     6.2945   893.7596 C.3      280 DG      0.0000
    519 C1'       -0.7818     5.1506   894.5834 C.3      280 DG      0.0000
    520 N9        -1.4989     3.8935   894.3101 N.ar     280 DG      0.0000
    521 C8        -2.8521     3.7092   894.1535 C.ar     280 DG      0.0000
    522 N7        -3.1973     2.4682   893.9351 N.ar     280 DG      0.0000
    523 C5        -1.9893     1.7812   893.9599 C.ar     280 DG      0.0000
    524 C6        -1.6921     0.4010   893.8034 C.2      280 DG      0.0000
    525 O6        -2.5051    -0.5134   893.6066 O.2      280 DG      0.0000
    526 N1        -0.3558     0.0972   893.8903 N.am     280 DG      0.0000
    527 C2         0.5957     1.0372   894.1110 C.2      280 DG      0.0000
    528 N2         1.8483     0.5941   894.1743 N.pl3    280 DG      0.0000
    529 N3         0.3700     2.3472   894.2687 N.2      280 DG      0.0000
    530 C4        -0.9413     2.6446   894.1854 C.ar     280 DG      0.0000
    531 H5'       -2.4861     8.1933   897.2603 H        280 DG      0.0000
    532 H5''      -2.8531     6.4501   897.3674 H        280 DG      0.0000
    533 H4'       -0.4205     7.3503   896.7049 H        280 DG      0.0000
    534 H3'       -1.7378     8.2887   894.4914 H        280 DG      0.0000
    535 H2'       -2.4250     6.1909   893.6169 H        280 DG      0.0000
    536 H2''      -0.8369     6.3734   892.8009 H        280 DG      0.0000
    537 H1'        0.2819     5.0300   894.3782 H        280 DG      0.0000
    538 H8        -3.5660     4.5179   894.2062 H        280 DG      0.0000
    539 H1        -0.0702    -0.8658   893.7855 H        280 DG      0.0000
    540 H21        2.0421    -0.3905   894.0592 H        280 DG      0.0000
    541 H22        2.6056     1.2421   894.3375 H        280 DG      0.0000
    542 P          0.8048     7.9003   892.8714 P.3      279 DT      0.0000
    543 OP1        1.7966     8.9626   892.4805 O.co2    279 DT      0.0000
    544 OP2       -0.4893     8.0893   892.1709 O.co2    279 DT      0.0000
    545 O5'        1.4726     6.4497   892.7405 O.3      279 DT      0.0000
    546 C5'        2.9086     6.3585   893.0082 C.3      279 DT      0.0000
    547 C4'        3.4617     5.1707   892.2511 C.3      279 DT      0.0000
    548 O4'        2.5707     4.0700   892.2238 O.3      279 DT      0.0000
    549 C3'        3.7754     5.4845   890.7964 C.3      279 DT      0.0000
    550 O3'        4.9715     4.8443   890.3013 O.3      279 DT      0.0000
    551 C2'        2.5375     5.0017   890.0736 C.3      279 DT      0.0000
    552 C1'        2.2795     3.7220   890.8517 C.3      279 DT      0.0000
    553 N1         0.8485     3.4154   890.7003 N.am     279 DT      0.0000
    554 C2         0.4926     2.0748   890.8071 C.2      279 DT      0.0000
    555 O2         1.3488     1.2176   890.9969 O.2      279 DT      0.0000
    556 N3        -0.8345     1.7699   890.6870 N.am     279 DT      0.0000
    557 C4        -1.7777     2.7290   890.4694 C.2      279 DT      0.0000
    558 O4        -2.9910     2.3478   890.3718 O.2      279 DT      0.0000
    559 C5        -1.3828     4.0932   890.3630 C.2      279 DT      0.0000
    560 C7        -2.4151     5.1598   890.1341 C.3      279 DT      0.0000
    561 C6        -0.0853     4.3852   890.4848 C.2      279 DT      0.0000
    562 H5'        3.4037     7.2705   892.6744 H        279 DT      0.0000
    563 H5''       3.0743     6.2216   894.0768 H        279 DT      0.0000
    564 H4'        4.3831     4.8530   892.7391 H        279 DT      0.0000
    565 H3'        3.8670     6.5635   890.6724 H        279 DT      0.0000
    566 H2'        1.7117     5.7072   890.1651 H        279 DT      0.0000
    567 H2''       2.7543     4.7865   889.0272 H        279 DT      0.0000
    568 H1'        2.9073     2.9028   890.5010 H        279 DT      0.0000
    569 H3        -1.1245     0.8053   890.7616 H        279 DT      0.0000
    570 H6         0.2320     5.4148   890.4106 H        279 DT      0.0000
    571 H71       -3.4019     4.7022   890.0654 H        279 DT      0.0000
    572 H72       -2.3989     5.8650   890.9649 H        279 DT      0.0000
    573 H73       -2.1934     5.6867   889.2059 H        279 DT      0.0000
    574 P          5.8622     6.0085   889.5229 P.3      278 DG      0.0000
    575 OP1        6.8933     6.6487   890.3941 O.co2    278 DG      0.0000
    576 OP2        4.7482     6.9017   889.1174 O.co2    278 DG      0.0000
    577 O5'        6.6283     5.1143   888.4421 O.3      278 DG      0.0000
    578 C5'        7.7764     4.3362   888.8656 C.3      278 DG      0.0000
    579 C4'        7.4685     2.9128   888.4178 C.3      278 DG      0.0000
    580 O4'        6.1141     2.6121   888.6885 O.3      278 DG      0.0000
    581 C3'        7.7070     2.6544   886.9301 C.3      278 DG      0.0000
    582 O3'        8.6036     1.5780   886.7216 O.3      278 DG      0.0000
    583 C2'        6.3149     2.4671   886.3534 C.3      278 DG      0.0000
    584 C1'        5.5275     1.9626   887.5395 C.3      278 DG      0.0000
    585 N9         4.1107     2.3157   887.4160 N.ar     278 DG      0.0000
    586 C8         3.5560     3.5540   887.2571 C.ar     278 DG      0.0000
    587 N7         2.2477     3.5400   887.1790 N.ar     278 DG      0.0000
    588 C5         1.9151     2.1955   887.3166 C.ar     278 DG      0.0000
    589 C6         0.6632     1.5257   887.3260 C.2      278 DG      0.0000
    590 O6        -0.4493     2.0334   887.2270 O.2      278 DG      0.0000
    591 N1         0.7449     0.1703   887.4750 N.am     278 DG      0.0000
    592 C2         1.9487    -0.4784   887.6079 C.2      278 DG      0.0000
    593 N2         1.8845    -1.8032   887.7435 N.pl3    278 DG      0.0000
    594 N3         3.1587     0.0901   887.6122 N.2      278 DG      0.0000
    595 C4         3.0618     1.4331   887.4615 C.ar     278 DG      0.0000
    596 H5'        8.6851     4.7010   888.3868 H        278 DG      0.0000
    597 H5''       7.8796     4.3762   889.9499 H        278 DG      0.0000
    598 H4'        8.0943     2.2287   888.9908 H        278 DG      0.0000
    599 H3'        8.1417     3.5526   886.4915 H        278 DG      0.0000
    600 H2'        5.9114     3.4110   885.9870 H        278 DG      0.0000
    601 H2''       6.3276     1.7220   885.5578 H        278 DG      0.0000
    602 H1'        5.6362     0.8815   887.6266 H        278 DG      0.0000
    603 H8         4.1410     4.4601   887.2010 H        278 DG      0.0000
    604 H1        -0.1068    -0.3723   887.4879 H        278 DG      0.0000
    605 H21        0.9877    -2.2679   887.7445 H        278 DG      0.0000
    606 H22        2.7325    -2.3421   887.8453 H        278 DG      0.0000
    607 P          8.5830     0.2566   885.8553 P.3      277 DA      0.0000
    608 OP1        9.2245    -0.8971   886.6367 O.co2    277 DA      0.0000
    609 OP2        9.3738     0.5687   884.6626 O.co2    277 DA      0.0000
    610 O5'        7.0147    -0.1484   885.6805 O.3      277 DA      0.0000
    611 C5'        6.5211    -0.9232   886.8370 C.3      277 DA      0.0000
    612 C4'        6.1269    -2.2805   886.3091 C.3      277 DA      0.0000
    613 O4'        4.7439    -2.3899   886.0869 O.3      277 DA      0.0000
    614 C3'        6.7817    -2.6115   884.9686 C.3      277 DA      0.0000
    615 O3'        7.2130    -3.9493   884.8935 O.3      277 DA      0.0000
    616 C2'        5.7333    -2.1508   883.9721 C.3      277 DA      0.0000
    617 C1'        4.4161    -2.1793   884.6959 C.3      277 DA      0.0000
    618 N9         3.6449    -0.9449   884.4704 N.ar     277 DA      0.0000
    619 C8         4.1037     0.3412   884.2840 C.ar     277 DA      0.0000
    620 N7         3.1576     1.2306   884.0882 N.ar     277 DA      0.0000
    621 C5         1.9922     0.4794   884.1750 C.ar     277 DA      0.0000
    622 C6         0.6309     0.8488   884.0694 C.ar     277 DA      0.0000
    623 N6         0.2189     2.0862   883.8569 N.pl3    277 DA      0.0000
    624 N1        -0.2746    -0.1607   884.1931 N.ar     277 DA      0.0000
    625 C2         0.1222    -1.4482   884.4176 C.ar     277 DA      0.0000
    626 N3         1.3828    -1.8605   884.5335 N.ar     277 DA      0.0000
    627 C4         2.2735    -0.8485   884.3974 C.ar     277 DA      0.0000
    628 H5'        7.3074    -1.0244   887.5850 H        277 DA      0.0000
    629 H5''       5.6539    -0.4278   887.2736 H        277 DA      0.0000
    630 H4'        6.4231    -3.0360   887.0368 H        277 DA      0.0000
    631 H3'        7.6562    -1.9706   884.8555 H        277 DA      0.0000
    632 H2'        5.7067    -2.8239   883.1152 H        277 DA      0.0000
    633 H2''       5.9545    -1.1359   883.6415 H        277 DA      0.0000
    634 H1'        3.8349    -3.0289   884.3377 H        277 DA      0.0000
    635 H8         5.1531     0.5962   884.2979 H        277 DA      0.0000
    636 H2        -0.6524    -2.1951   884.5089 H        277 DA      0.0000
    637 H61       -0.6893     2.3959   884.1723 H        277 DA      0.0000
    638 H62        0.8227     2.7336   883.3707 H        277 DA      0.0000
    639 P          7.1783    -4.9944   883.7089 P.3      276 DA      0.0000
    640 OP1        7.5301    -6.4189   884.2288 O.co2    276 DA      0.0000
    641 OP2        8.2547    -4.5382   882.7752 O.co2    276 DA      0.0000
    642 O5'        5.6881    -5.0868   883.2062 O.3      276 DA      0.0000
    643 C5'        4.8390    -6.1603   883.6620 C.3      276 DA      0.0000
    644 C4'        3.5081    -5.9993   882.9601 C.3      276 DA      0.0000
    645 O4'        3.0778    -4.6735   882.8393 O.3      276 DA      0.0000
    646 C3'        3.4859    -6.5937   881.5526 C.3      276 DA      0.0000
    647 O3'        2.5857    -7.7173   881.5211 O.3      276 DA      0.0000
    648 C2'        3.1832    -5.3940   880.6530 C.3      276 DA      0.0000
    649 C1'        2.4062    -4.4796   881.5508 C.3      276 DA      0.0000
    650 N9         2.4827    -3.0535   881.2512 N.ar     276 DA      0.0000
    651 C8         3.5947    -2.2606   881.0564 C.ar     276 DA      0.0000
    652 N7         3.3130    -0.9933   880.8510 N.ar     276 DA      0.0000
    653 C5         1.9349    -0.9372   880.9255 C.ar     276 DA      0.0000
    654 C6         1.0258     0.1362   880.7920 C.ar     276 DA      0.0000
    655 N6         1.3922     1.3909   880.5489 N.pl3    276 DA      0.0000
    656 N1        -0.2967    -0.1965   880.9409 N.ar     276 DA      0.0000
    657 C2        -0.6973    -1.4574   881.1934 C.ar     276 DA      0.0000
    658 N3         0.1024    -2.5192   881.3323 N.ar     276 DA      0.0000
    659 C4         1.4046    -2.1883   881.1850 C.ar     276 DA      0.0000
    660 H5'        5.2827    -7.1226   883.4069 H        276 DA      0.0000
    661 H5''       4.6999    -6.0905   884.7408 H        276 DA      0.0000
    662 H4'        2.7621    -6.5315   883.5502 H        276 DA      0.0000
    663 H3'        4.4880    -6.9524   881.3175 H        276 DA      0.0000
    664 H2'        4.1034    -4.9186   880.3131 H        276 DA      0.0000
    665 H2''       2.5751    -5.6997   879.8017 H        276 DA      0.0000
    666 H1'        1.3661    -4.8000   881.6119 H        276 DA      0.0000
    667 H8         4.6037    -2.6456   881.0714 H        276 DA      0.0000
    668 H2        -1.7595    -1.6255   881.2925 H        276 DA      0.0000
    669 H61        0.7331     2.0976   880.8429 H        276 DA      0.0000
    670 H62        2.2679     1.6213   880.1016 H        276 DA      0.0000
    671 P          2.3775    -8.5114   880.1361 P.3      275 DT      0.0000
    672 OP1        1.6997    -9.8457   880.1943 O.co2    275 DT      0.0000
    673 OP2        3.7817    -8.5276   879.6235 O.co2    275 DT      0.0000
    674 O5'        1.2879    -7.4644   879.4330 O.3      275 DT      0.0000
    675 C5'        0.3301    -7.0303   880.4453 C.3      275 DT      0.0000
    676 C4'       -0.9155    -6.5635   879.7624 C.3      275 DT      0.0000
    677 O4'       -0.9683    -5.1799   879.5819 O.3      275 DT      0.0000
    678 C3'       -1.1543    -7.1984   878.4011 C.3      275 DT      0.0000
    679 O3'       -2.5385    -7.4546   878.1338 O.3      275 DT      0.0000
    680 C2'       -0.5034    -6.1343   877.5078 C.3      275 DT      0.0000
    681 C1'       -0.9959    -4.8539   878.1478 C.3      275 DT      0.0000
    682 N1        -0.0525    -3.7436   877.9178 N.am     275 DT      0.0000
    683 C2        -0.5812    -2.4706   877.7962 C.2      275 DT      0.0000
    684 O2        -1.7978    -2.2799   877.8330 O.2      275 DT      0.0000
    685 N3         0.2886    -1.4274   877.6288 N.am     275 DT      0.0000
    686 C4         1.6349    -1.6142   877.5803 C.2      275 DT      0.0000
    687 O4         2.3637    -0.5942   877.3948 O.2      275 DT      0.0000
    688 C5         2.1592    -2.9288   877.7287 C.2      275 DT      0.0000
    689 C7         3.6484    -3.1742   877.6766 C.3      275 DT      0.0000
    690 C6         1.2969    -3.9360   877.9017 C.2      275 DT      0.0000
    691 H5'        0.0943    -7.8635   881.1074 H        275 DT      0.0000
    692 H5''       0.7572    -6.2122   881.0253 H        275 DT      0.0000
    693 H4'       -1.7561    -6.8388   880.3994 H        275 DT      0.0000
    694 H3'       -0.5909    -8.1287   878.3291 H        275 DT      0.0000
    695 H2'        0.5841    -6.2010   877.5384 H        275 DT      0.0000
    696 H2''      -0.8659    -6.2172   876.4832 H        275 DT      0.0000
    697 H1'       -2.0020    -4.6004   877.8138 H        275 DT      0.0000
    698 H3        -0.0800    -0.4914   877.5387 H        275 DT      0.0000
    699 H6         1.6828    -4.9362   878.0330 H        275 DT      0.0000
    700 H71        3.9306    -3.4873   876.6714 H        275 DT      0.0000
    701 H72        3.9125    -3.9565   878.3881 H        275 DT      0.0000
    702 H73        4.1771    -2.2562   877.9331 H        275 DT      0.0000
    703 P         -2.8747    -8.0390   876.6439 P.3      274 DT      0.0000
    704 OP1       -3.4047    -9.4665   876.7919 O.co2    274 DT      0.0000
    705 OP2       -1.5308    -8.0658   875.9741 O.co2    274 DT      0.0000
    706 O5'       -3.9142    -7.0920   875.9919 O.3      274 DT      0.0000
    707 C5'       -4.8758    -6.3511   876.7433 C.3      274 DT      0.0000
    708 C4'       -5.1881    -5.0948   875.9953 C.3      274 DT      0.0000
    709 O4'       -4.2114    -4.0905   875.9383 O.3      274 DT      0.0000
    710 C3'       -5.6520    -5.2352   874.5292 C.3      274 DT      0.0000
    711 O3'       -6.5887    -4.1587   874.4255 O.3      274 DT      0.0000
    712 C2'       -4.3532    -4.9446   873.7655 C.3      274 DT      0.0000
    713 C1'       -3.9542    -3.7059   874.5412 C.3      274 DT      0.0000
    714 N1        -2.5468    -3.3105   874.4350 N.am     274 DT      0.0000
    715 C2        -2.3094    -1.9294   874.4344 C.2      274 DT      0.0000
    716 O2        -3.2414    -1.1236   874.4774 O.2      274 DT      0.0000
    717 N3        -1.0070    -1.5232   874.3809 N.am     274 DT      0.0000
    718 C4         0.0369    -2.3979   874.3212 C.2      274 DT      0.0000
    719 O4         1.2101    -1.9215   874.2588 O.2      274 DT      0.0000
    720 C5        -0.2324    -3.7937   874.3294 C.2      274 DT      0.0000
    721 C7         0.9179    -4.7769   874.2680 C.3      274 DT      0.0000
    722 C6        -1.5079    -4.1865   874.3959 C.2      274 DT      0.0000
    723 H5'       -5.7832    -6.9425   876.8655 H        274 DT      0.0000
    724 H5''      -4.4648    -6.1031   877.7218 H        274 DT      0.0000
    725 H4'       -6.0307    -4.6476   876.5225 H        274 DT      0.0000
    726 H3'       -6.0823    -6.2102   874.3005 H        274 DT      0.0000
    727 H2'       -4.5283    -4.7366   872.7099 H        274 DT      0.0000
    728 H2''      -3.6271    -5.7467   873.8971 H        274 DT      0.0000
    729 H1'       -4.5963    -2.8705   874.2622 H        274 DT      0.0000
    730 H3        -0.8086    -0.5330   874.3858 H        274 DT      0.0000
    731 H6        -1.7225    -5.2447   874.4196 H        274 DT      0.0000
    732 H71        1.8604    -4.2315   874.2192 H        274 DT      0.0000
    733 H72        0.8140    -5.4024   873.3814 H        274 DT      0.0000
    734 H73        0.9072    -5.4047   875.1590 H        274 DT      0.0000
    735 P         -7.6081    -3.9188   873.2792 P.3      273 DC      0.0000
    736 OP1       -8.9845    -3.6454   873.8884 O.co2    273 DC      0.0000
    737 OP2       -7.6486    -5.1941   872.4974 O.co2    273 DC      0.0000
    738 O5'       -6.9503    -2.6246   872.5398 O.3      273 DC      0.0000
    739 C5'       -7.0959    -1.3592   873.2643 C.3      273 DC      0.0000
    740 C4'       -7.2417    -0.2891   872.2138 C.3      273 DC      0.0000
    741 O4'       -6.0302     0.3864   871.9685 O.3      273 DC      0.0000
    742 C3'       -7.7316    -0.7770   870.8494 C.3      273 DC      0.0000
    743 O3'       -8.5481     0.1574   870.1401 O.3      273 DC      0.0000
    744 C2'       -6.3954    -1.0926   870.1633 C.3      273 DC      0.0000
    745 C1'       -5.4787     0.0002   870.7098 C.3      273 DC      0.0000
    746 N1        -4.1142    -0.5654   870.8276 N.am     273 DC      0.0000
    747 C2        -3.0530     0.3386   870.8449 C.2      273 DC      0.0000
    748 O2        -3.2505     1.5595   870.7762 O.2      273 DC      0.0000
    749 N3        -1.7903    -0.1796   870.9481 N.2      273 DC      0.0000
    750 C4        -1.5620    -1.5171   871.0189 C.2      273 DC      0.0000
    751 N4        -0.3120    -1.9741   871.1208 N.pl3    273 DC      0.0000
    752 C5        -2.6630    -2.4180   870.9937 C.2      273 DC      0.0000
    753 C6        -3.9030    -1.9081   870.9001 C.2      273 DC      0.0000
    754 H5'       -7.9807    -1.3876   873.9003 H        273 DC      0.0000
    755 H5''      -6.2082    -1.1707   873.8682 H        273 DC      0.0000
    756 H4'       -7.9608     0.4423   872.5826 H        273 DC      0.0000
    757 H3'       -8.2888    -1.7041   870.9836 H        273 DC      0.0000
    758 H2'       -6.4840    -1.0267   869.0789 H        273 DC      0.0000
    759 H2''      -6.0358    -2.0781   870.4592 H        273 DC      0.0000
    760 H1'       -5.4704     0.8525   870.0305 H        273 DC      0.0000
    761 H5        -2.5062    -3.4852   871.0485 H        273 DC      0.0000
    762 H6        -4.7500    -2.5780   870.8820 H        273 DC      0.0000
    763 H41        0.4625    -1.3261   871.1415 H        273 DC      0.0000
    764 H42       -0.1406    -2.9679   871.1772 H        273 DC      0.0000
    765 P         -8.5526     0.3912   868.5081 P.3      272 DA      0.0000
    766 OP1       -9.8843     0.9956   868.1186 O.co2    272 DA      0.0000
    767 OP2       -8.2883    -0.9578   867.9380 O.co2    272 DA      0.0000
    768 O5'       -7.4295     1.5136   868.3426 O.3      272 DA      0.0000
    769 C5'       -7.7461     2.8829   868.8080 C.3      272 DA      0.0000
    770 C4'       -6.8368     3.7264   867.9307 C.3      272 DA      0.0000
    771 O4'       -5.4670     3.3997   868.1981 O.3      272 DA      0.0000
    772 C3'       -7.0140     3.4541   866.4263 C.3      272 DA      0.0000
    773 O3'       -6.4503     4.4896   865.6373 O.3      272 DA      0.0000
    774 C2'       -6.0782     2.2458   866.2388 C.3      272 DA      0.0000
    775 C1'       -4.8817     2.8872   866.9935 C.3      272 DA      0.0000
    776 N9        -3.9175     1.8015   867.1389 N.ar     272 DA      0.0000
    777 C8        -4.2039     0.4566   867.2118 C.ar     272 DA      0.0000
    778 N7        -3.1385    -0.2960   867.3264 N.ar     272 DA      0.0000
    779 C5        -2.0793     0.6291   867.3200 C.ar     272 DA      0.0000
    780 C6        -0.6738     0.4374   867.4200 C.ar     272 DA      0.0000
    781 N6        -0.0940    -0.7601   867.5428 N.pl3    272 DA      0.0000
    782 N1         0.0552     1.5878   867.3848 N.ar     272 DA      0.0000
    783 C2        -0.5328     2.8034   867.2659 C.ar     272 DA      0.0000
    784 N3        -1.8418     3.0554   867.1745 N.ar     272 DA      0.0000
    785 C4        -2.5506     1.9133   867.2020 C.ar     272 DA      0.0000
    786 H5'       -8.7955     3.1261   868.6413 H        272 DA      0.0000
    787 H5''      -7.4855     3.0021   869.8596 H        272 DA      0.0000
    788 H4'       -7.0081     4.7834   868.1347 H        272 DA      0.0000
    789 H3'       -8.0468     3.2333   866.1567 H        272 DA      0.0000
    790 H2'       -6.4495     1.3412   866.7205 H        272 DA      0.0000
    791 H2''      -5.8463     2.0757   865.1875 H        272 DA      0.0000
    792 H1'       -4.4533     3.6986   866.4051 H        272 DA      0.0000
    793 H8        -5.2084     0.0615   867.1778 H        272 DA      0.0000
    794 H2         0.1264     3.6585   867.2427 H        272 DA      0.0000
    795 H61       -0.6610    -1.5956   867.5676 H        272 DA      0.0000
    796 H62        0.9113    -0.8299   867.6109 H        272 DA      0.0000
    797 P         -7.3000     5.1951   864.4963 P.3      271 DC      0.0000
    798 OP1       -8.0797     6.2405   865.2766 O.co2    271 DC      0.0000
    799 OP2       -8.1630     4.2563   863.7707 O.co2    271 DC      0.0000
    800 O5'       -6.0970     5.7474   863.5205 O.3      271 DC      0.0000
    801 C5'       -5.0481     6.5467   864.1895 C.3      271 DC      0.0000
    802 C4'       -3.7238     6.2319   863.5455 C.3      271 DC      0.0000
    803 O4'       -3.0124     5.1778   864.1826 O.3      271 DC      0.0000
    804 C3'       -3.8582     5.8266   862.0676 C.3      271 DC      0.0000
    805 O3'       -2.7619     6.2298   861.2563 O.3      271 DC      0.0000
    806 C2'       -3.8263     4.2719   862.2333 C.3      271 DC      0.0000
    807 C1'       -2.5337     4.3160   863.1289 C.3      271 DC      0.0000
    808 N1        -2.1401     2.9519   863.3668 N.am     271 DC      0.0000
    809 C2        -0.8167     2.6921   863.6839 C.2      271 DC      0.0000
    810 O2         0.1300     3.4744   863.8244 O.2      271 DC      0.0000
    811 N3        -0.4482     1.3903   863.8821 N.2      271 DC      0.0000
    812 C4        -1.3394     0.3593   863.7661 C.2      271 DC      0.0000
    813 N4        -0.9340    -0.9018   863.9822 N.pl3    271 DC      0.0000
    814 C5        -2.6939     0.6415   863.4365 C.2      271 DC      0.0000
    815 C6        -3.0300     1.9225   863.2448 C.2      271 DC      0.0000
    816 H5'       -5.2679     7.6085   864.0780 H        271 DC      0.0000
    817 H5''      -5.0110     6.2895   865.2481 H        271 DC      0.0000
    818 H4'       -3.1066     7.1291   863.5922 H        271 DC      0.0000
    819 H3'       -4.8068     6.1620   861.6486 H        271 DC      0.0000
    820 H2'       -4.6989     3.8728   862.7504 H        271 DC      0.0000
    821 H2''      -3.6476     3.7649   861.2851 H        271 DC      0.0000
    822 H1'       -1.7395     4.8264   862.5840 H        271 DC      0.0000
    823 H5        -3.4241    -0.1489   863.3444 H        271 DC      0.0000
    824 H6        -4.0517     2.1531   862.9816 H        271 DC      0.0000
    825 H41        0.0290    -1.0884   864.2227 H        271 DC      0.0000
    826 H42       -1.5919    -1.6642   863.9043 H        271 DC      0.0000
    827 P          8.4249    -5.4224   897.8555 P.3      281 DG      0.0000
    828 OP1        9.1406    -6.7222   897.8540 O.co2    281 DG      0.0000
    829 OP2        7.3148    -5.5292   898.9112 O.co2    281 DG      0.0000
    830 O5'        9.3119    -4.1136   898.0339 O.3      281 DG      0.0000
    831 C5'        9.7478    -3.1685   897.0339 C.3      281 DG      0.0000
    832 C4'        9.4298    -1.7743   897.5327 C.3      281 DG      0.0000
    833 O4'        8.1547    -1.3387   897.1136 O.3      281 DG      0.0000
    834 C3'        9.5045    -1.5213   899.0249 C.3      281 DG      0.0000
    835 O3'       10.3806    -0.4048   899.3369 O.3      281 DG      0.0000
    836 C2'        8.0657    -1.2914   899.4468 C.3      281 DG      0.0000
    837 C1'        7.4069    -0.7737   898.1911 C.3      281 DG      0.0000
    838 N9         5.9888    -1.1755   898.1621 N.ar     281 DG      0.0000
    839 C8         5.4271    -2.4094   898.3910 C.ar     281 DG      0.0000
    840 N7         4.1164    -2.4273   898.3013 N.ar     281 DG      0.0000
    841 C5         3.7882    -1.1117   897.9843 C.ar     281 DG      0.0000
    842 C6         2.5412    -0.4783   897.7583 C.2      281 DG      0.0000
    843 O6         1.4166    -0.9794   897.7796 O.2      281 DG      0.0000
    844 N1         2.6098     0.8587   897.4768 N.am     281 DG      0.0000
    845 C2         3.7263     1.5112   897.4162 C.2      281 DG      0.0000
    846 N2         3.5127     2.7341   897.1194 N.pl3    281 DG      0.0000
    847 N3         5.0021     0.9777   897.6249 N.2      281 DG      0.0000
    848 C4         4.9268    -0.3328   897.8975 C.ar     281 DG      0.0000
    849 H5'       10.8217    -3.2677   896.8752 H        281 DG      0.0000
    850 H5''       9.2196    -3.3534   896.0985 H        281 DG      0.0000
    851 H4'       10.1544    -1.1057   897.0680 H        281 DG      0.0000
    852 H3'        9.8809    -2.4171   899.5189 H        281 DG      0.0000
    853 H2'        7.6026    -2.2223   899.7738 H        281 DG      0.0000
    854 H2''       8.0163    -0.5436   900.2383 H        281 DG      0.0000
    855 H1'        7.4810     0.3133   898.1592 H        281 DG      0.0000
    856 H8         6.0120    -3.2869   898.6240 H        281 DG      0.0000
    857 H1         1.7493     1.3600   897.3084 H        281 DG      0.0000
    858 H21        2.5681     3.0612   896.9750 H        281 DG      0.0000
    859 H22        4.2883     3.3747   897.0289 H        281 DG      0.0000
    860 P         10.4321     0.2654   900.7654 P.3      282 DT      0.0000
    861 OP1       11.7980     0.6434   901.2771 O.co2    282 DT      0.0000
    862 OP2        9.9740    -0.8818   901.6841 O.co2    282 DT      0.0000
    863 O5'        9.3704     1.3945   900.7940 O.3      282 DT      0.0000
    864 C5'        9.7038     2.8025   900.6500 C.3      282 DT      0.0000
    865 C4'        8.3706     3.5183   900.7075 C.3      282 DT      0.0000
    866 O4'        7.2896     2.6547   900.4324 O.3      282 DT      0.0000
    867 C3'        8.0150     4.1693   902.0203 C.3      282 DT      0.0000
    868 O3'        7.9604     5.5911   901.8321 O.3      282 DT      0.0000
    869 C2'        6.6511     3.6017   902.4125 C.3      282 DT      0.0000
    870 C1'        6.1046     3.2259   901.0597 C.3      282 DT      0.0000
    871 N1         5.1055     2.1614   901.1564 N.am     282 DT      0.0000
    872 C2         3.7960     2.5062   900.9585 C.2      282 DT      0.0000
    873 O2         3.4461     3.6599   900.7203 O.2      282 DT      0.0000
    874 N3         2.8680     1.5031   901.0395 N.am     282 DT      0.0000
    875 C4         3.1969     0.2166   901.2954 C.2      282 DT      0.0000
    876 O4         2.2347    -0.5939   901.3407 O.2      282 DT      0.0000
    877 C5         4.5728    -0.1258   901.4951 C.2      282 DT      0.0000
    878 C7         4.9786    -1.5363   901.7750 C.3      282 DT      0.0000
    879 C6         5.4736     0.8618   901.4136 C.2      282 DT      0.0000
    880 H5'       10.3515     3.1296   901.4635 H        282 DT      0.0000
    881 H5''      10.1863     2.9798   899.6888 H        282 DT      0.0000
    882 H4'        8.3777     4.2952   899.9430 H        282 DT      0.0000
    883 H3'        8.7581     3.9188   902.7774 H        282 DT      0.0000
    884 H2'        6.7501     2.7314   903.0613 H        282 DT      0.0000
    885 H2''       6.0329     4.3670   902.8817 H        282 DT      0.0000
    886 H1'        5.7293     4.0919   900.5144 H        282 DT      0.0000
    887 H3         1.8945     1.7341   900.9020 H        282 DT      0.0000
    888 H6         6.5193     0.6308   901.5540 H        282 DT      0.0000
    889 H71        5.3887    -1.9835   900.8695 H        282 DT      0.0000
    890 H72        4.1085    -2.1068   902.0998 H        282 DT      0.0000
    891 H73        5.7345    -1.5479   902.5603 H        282 DT      0.0000
    892 P          8.5200     6.4245   903.1120 P.3      283 DG      0.0000
    893 OP1        9.2037     7.5829   902.3969 O.co2    283 DG      0.0000
    894 OP2        9.4267     5.5770   903.8655 O.co2    283 DG      0.0000
    895 O5'        7.0513     6.7929   903.7215 O.3      283 DG      0.0000
    896 C5'        6.1737     7.2660   902.6309 C.3      283 DG      0.0000
    897 C4'        4.7664     7.2744   903.1510 C.3      283 DG      0.0000
    898 O4'        4.0247     6.0977   902.9704 O.3      283 DG      0.0000
    899 C3'        4.6946     7.6181   904.6590 C.3      283 DG      0.0000
    900 O3'        3.7875     8.7357   904.8179 O.3      283 DG      0.0000
    901 C2'        4.2800     6.3166   905.3116 C.3      283 DG      0.0000
    902 C1'        3.4069     5.6912   904.2300 C.3      283 DG      0.0000
    903 N9         3.3057     4.2374   904.3996 N.ar     283 DG      0.0000
    904 C8         4.2860     3.3450   904.7358 C.ar     283 DG      0.0000
    905 N7         3.8841     2.0960   904.8215 N.ar     283 DG      0.0000
    906 C5         2.5333     2.1796   904.4915 C.ar     283 DG      0.0000
    907 C6         1.5333     1.1699   904.3972 C.2      283 DG      0.0000
    908 O6         1.6549    -0.0491   904.5895 O.2      283 DG      0.0000
    909 N1         0.2831     1.6373   904.0621 N.am     283 DG      0.0000
    910 C2         0.0440     2.9589   903.8383 C.2      283 DG      0.0000
    911 N2        -1.2305     3.2314   903.5295 N.pl3    283 DG      0.0000
    912 N3         0.9434     3.9376   903.9094 N.2      283 DG      0.0000
    913 C4         2.1654     3.4832   904.2359 C.ar     283 DG      0.0000
    914 H5'        6.4646     8.2726   902.3304 H        283 DG      0.0000
    915 H5''       6.2479     6.5907   901.7785 H        283 DG      0.0000
    916 H4'        4.2377     8.0662   902.6204 H        283 DG      0.0000
    917 H3'        5.6854     7.9021   905.0138 H        283 DG      0.0000
    918 H2'        5.1446     5.6913   905.5345 H        283 DG      0.0000
    919 H2''       3.6988     6.5062   906.2140 H        283 DG      0.0000
    920 H1'        2.4081     6.1238   904.2890 H        283 DG      0.0000
    921 H8         5.3084     3.6423   904.9164 H        283 DG      0.0000
    922 H1        -0.4798     0.9805   903.9798 H        283 DG      0.0000
    923 H21       -1.9088     2.4847   903.4793 H        283 DG      0.0000
    924 H22       -1.5134     4.1837   903.3469 H        283 DG      0.0000
    925 P          3.5665     9.4192   906.2063 P.3      284 DA      0.0000
    926 OP1        4.4900    10.5390   906.5616 O.co2    284 DA      0.0000
    927 OP2        3.9513     8.1850   907.1020 O.co2    284 DA      0.0000
    928 O5'        2.0110     9.6014   906.4554 O.3      284 DA      0.0000
    929 C5'        1.0120     9.6548   905.4264 C.3      284 DA      0.0000
    930 C4'       -0.1016     8.7352   905.9007 C.3      284 DA      0.0000
    931 O4'        0.3030     7.3859   905.8103 O.3      284 DA      0.0000
    932 C3'       -0.5981     8.9552   907.3297 C.3      284 DA      0.0000
    933 O3'       -2.0393     8.9887   907.3820 O.3      284 DA      0.0000
    934 C2'        0.0002     7.7498   908.0652 C.3      284 DA      0.0000
    935 C1'       -0.1851     6.6922   906.9876 C.3      284 DA      0.0000
    936 N9         0.5959     5.4724   907.2160 N.ar     284 DA      0.0000
    937 C8         1.9356     5.3149   907.4317 C.ar     284 DA      0.0000
    938 N7         2.3053     4.0644   907.5967 N.ar     284 DA      0.0000
    939 C5         1.1263     3.3478   907.4565 C.ar     284 DA      0.0000
    940 C6         0.8626     1.9614   907.5045 C.ar     284 DA      0.0000
    941 N6         1.7877     1.0241   907.7242 N.pl3    284 DA      0.0000
    942 N1        -0.4440     1.6101   907.3147 N.ar     284 DA      0.0000
    943 C2        -1.3981     2.5444   907.0969 C.ar     284 DA      0.0000
    944 N3        -1.2240     3.8642   907.0387 N.ar     284 DA      0.0000
    945 C4         0.0676     4.1917   907.2255 C.ar     284 DA      0.0000
    946 H5'        1.4205     9.3025   904.4792 H        284 DA      0.0000
    947 H5''       0.6380    10.6729   905.3186 H        284 DA      0.0000
    948 H4'       -0.9507     8.8714   905.2309 H        284 DA      0.0000
    949 H3'       -0.1867     9.8813   907.7312 H        284 DA      0.0000
    950 H2'        1.0512     7.9022   908.3107 H        284 DA      0.0000
    951 H2''      -0.5791     7.5073   908.9561 H        284 DA      0.0000
    952 H1'       -1.2415     6.4495   906.8731 H        284 DA      0.0000
    953 H8         2.6282     6.1430   907.4638 H        284 DA      0.0000
    954 H2        -2.4060     2.1828   906.9556 H        284 DA      0.0000
    955 H61        2.7838     1.1599   907.6268 H        284 DA      0.0000
    956 H62        1.5426     0.0594   907.5527 H        284 DA      0.0000
    957 P         -2.8579     9.8403   908.5234 P.3      285 DA      0.0000
    958 OP1       -3.6993    10.8998   907.8564 O.co2    285 DA      0.0000
    959 OP2       -1.7458    10.3449   909.3544 O.co2    285 DA      0.0000
    960 O5'       -3.9184     8.7732   909.0543 O.3      285 DA      0.0000
    961 C5'       -4.9190     8.1779   908.2300 C.3      285 DA      0.0000
    962 C4'       -5.1892     6.7778   908.7523 C.3      285 DA      0.0000
    963 O4'       -4.0182     6.0117   908.7804 O.3      285 DA      0.0000
    964 C3'       -5.8390     6.6540   910.1196 C.3      285 DA      0.0000
    965 O3'       -7.1272     6.0441   910.0418 O.3      285 DA      0.0000
    966 C2'       -4.8025     5.8851   910.9483 C.3      285 DA      0.0000
    967 C1'       -4.0021     5.1367   909.9545 C.3      285 DA      0.0000
    968 N9        -2.5878     4.8187   910.2226 N.ar     285 DA      0.0000
    969 C8        -1.5015     5.6518   910.3378 C.ar     285 DA      0.0000
    970 N7        -0.3608     5.0261   910.5070 N.ar     285 DA      0.0000
    971 C5        -0.7120     3.6805   910.4700 C.ar     285 DA      0.0000
    972 C6         0.0664     2.4942   910.5905 C.ar     285 DA      0.0000
    973 N6         1.3789     2.4503   910.7821 N.pl3    285 DA      0.0000
    974 N1        -0.6300     1.3156   910.4923 N.ar     285 DA      0.0000
    975 C2        -1.9815     1.3207   910.3032 C.ar     285 DA      0.0000
    976 N3        -2.7658     2.3872   910.1954 N.ar     285 DA      0.0000
    977 C4        -2.0679     3.5370   910.2873 C.ar     285 DA      0.0000
    978 H5'       -4.5662     8.1261   907.1999 H        285 DA      0.0000
    979 H5''      -5.8330     8.7700   908.2759 H        285 DA      0.0000
    980 H4'       -5.8613     6.2998   908.0396 H        285 DA      0.0000
    981 H3'       -5.9516     7.6521   910.5428 H        285 DA      0.0000
    982 H2'       -4.1712     6.5747   911.5086 H        285 DA      0.0000
    983 H2''      -5.3012     5.1940   911.6279 H        285 DA      0.0000
    984 H1'       -4.5265     4.2133   909.7085 H        285 DA      0.0000
    985 H8        -1.5796     6.7280   910.2929 H        285 DA      0.0000
    986 H2        -2.4637     0.3568   910.2341 H        285 DA      0.0000
    987 H61        1.9030     3.2498   911.1083 H        285 DA      0.0000
    988 H62        1.8706     1.5880   910.5953 H        285 DA      0.0000
    989 P         -8.3961     6.3901   910.9980 P.3      286 DT      0.0000
    990 OP1       -9.6934     6.4645   910.2007 O.co2    286 DT      0.0000
    991 OP2       -8.1170     7.5499   911.8186 O.co2    286 DT      0.0000
    992 O5'       -8.5910     4.9741   911.8117 O.3      286 DT      0.0000
    993 C5'       -8.3874     3.8384   910.8666 C.3      286 DT      0.0000
    994 C4'       -7.5805     2.8377   911.6543 C.3      286 DT      0.0000
    995 O4'       -6.2367     3.2191   911.8463 O.3      286 DT      0.0000
    996 C3'       -8.1442     2.6214   913.0709 C.3      286 DT      0.0000
    997 O3'       -8.9497     1.4574   913.0726 O.3      286 DT      0.0000
    998 C2'       -6.9111     2.5499   913.9681 C.3      286 DT      0.0000
    999 C1'       -5.8065     2.3779   913.0035 C.3      286 DT      0.0000
   1000 N1        -4.4558     2.7961   913.3433 N.am     286 DT      0.0000
   1001 C2        -3.5029     1.7917   913.4812 C.2      286 DT      0.0000
   1002 O2        -3.8387     0.6177   913.3932 O.2      286 DT      0.0000
   1003 N3        -2.2151     2.1562   913.7352 N.am     286 DT      0.0000
   1004 C4        -1.8275     3.4601   913.8554 C.2      286 DT      0.0000
   1005 O4        -0.6081     3.7187   914.1105 O.2      286 DT      0.0000
   1006 C5        -2.8223     4.4783   913.6838 C.2      286 DT      0.0000
   1007 C7        -2.4439     5.9309   913.7713 C.3      286 DT      0.0000
   1008 C6        -4.0905     4.1135   913.4280 C.2      286 DT      0.0000
   1009 H5'       -9.3438     3.4112   910.5649 H        286 DT      0.0000
   1010 H5''      -7.8285     4.1701   909.9916 H        286 DT      0.0000
   1011 H4'       -7.5981     1.8849   911.1252 H        286 DT      0.0000
   1012 H3'       -8.7499     3.4819   913.3552 H        286 DT      0.0000
   1013 H2'       -6.7904     3.4690   914.5416 H        286 DT      0.0000
   1014 H2''      -6.9733     1.6896   914.6346 H        286 DT      0.0000
   1015 H1'       -5.7795     1.3354   912.6862 H        286 DT      0.0000
   1016 H3        -1.5184     1.4324   913.8389 H        286 DT      0.0000
   1017 H6        -4.8400     4.8780   913.2859 H        286 DT      0.0000
   1018 H71       -1.3785     6.0171   913.9843 H        286 DT      0.0000
   1019 H72       -2.6656     6.4215   912.8235 H        286 DT      0.0000
   1020 H73       -3.0137     6.4074   914.5691 H        286 DT      0.0000
   1021 P         -9.9012     0.9285   914.1792 P.3      287 DT      0.0000
   1022 OP1      -10.9717    -0.0117   913.5671 O.co2    287 DT      0.0000
   1023 OP2      -10.5143     2.1261   914.8091 O.co2    287 DT      0.0000
   1024 O5'       -8.9864    -0.0495   915.0615 O.3      287 DT      0.0000
   1025 C5'       -8.6281    -1.2643   914.3497 C.3      287 DT      0.0000
   1026 C4'       -7.4556    -1.8858   915.0259 C.3      287 DT      0.0000
   1027 O4'       -6.2848    -1.0788   915.0026 O.3      287 DT      0.0000
   1028 C3'       -7.6993    -2.2695   916.4925 C.3      287 DT      0.0000
   1029 O3'       -7.1668    -3.5537   916.7566 O.3      287 DT      0.0000
   1030 C2'       -6.8643    -1.1951   917.2289 C.3      287 DT      0.0000
   1031 C1'       -5.6487    -1.2346   916.3253 C.3      287 DT      0.0000
   1032 N1        -4.7406    -0.1424   916.6230 N.am     287 DT      0.0000
   1033 C2        -3.3821    -0.4087   916.6778 C.2      287 DT      0.0000
   1034 O2        -2.9926    -1.5620   916.4894 O.2      287 DT      0.0000
   1035 N3        -2.5309     0.6267   916.9437 N.am     287 DT      0.0000
   1036 C4        -2.9752     1.8965   917.1508 C.2      287 DT      0.0000
   1037 O4        -2.1268     2.8069   917.3741 O.2      287 DT      0.0000
   1038 C5        -4.3745     2.1596   917.0857 C.2      287 DT      0.0000
   1039 C7        -4.9413     3.5334   917.2956 C.3      287 DT      0.0000
   1040 C6        -5.1964     1.1311   916.8245 C.2      287 DT      0.0000
   1041 H5'       -9.4687    -1.9581   914.3622 H        287 DT      0.0000
   1042 H5''      -8.3695    -1.0216   913.3190 H        287 DT      0.0000
   1043 H4'       -7.2236    -2.8047   914.4874 H        287 DT      0.0000
   1044 H3'       -8.7555    -2.2092   916.7550 H        287 DT      0.0000
   1045 H2'       -7.3502    -0.2195   917.2276 H        287 DT      0.0000
   1046 H2''      -6.6154    -1.5122   918.2416 H        287 DT      0.0000
   1047 H1'       -5.1392    -2.1952   916.4009 H        287 DT      0.0000
   1048 H3        -1.5386     0.4435   916.9881 H        287 DT      0.0000
   1049 H6        -6.2590     1.3165   916.7715 H        287 DT      0.0000
   1050 H71       -4.1310     4.2349   917.4945 H        287 DT      0.0000
   1051 H72       -5.4794     3.8448   916.4003 H        287 DT      0.0000
   1052 H73       -5.6254     3.5185   918.1440 H        287 DT      0.0000
   1053 P         -7.6984    -4.8993   917.3645 P.3      288 DC      0.0000
   1054 OP1       -7.8578    -5.9644   916.2966 O.co2    288 DC      0.0000
   1055 OP2       -8.9243    -4.5378   918.0995 O.co2    288 DC      0.0000
   1056 O5'       -6.3427    -5.2734   918.1905 O.3      288 DC      0.0000
   1057 C5'       -5.2827    -5.1922   917.1683 C.3      288 DC      0.0000
   1058 C4'       -3.9779    -5.4548   917.8648 C.3      288 DC      0.0000
   1059 O4'       -3.2567    -4.2877   918.1117 O.3      288 DC      0.0000
   1060 C3'       -4.0838    -6.2580   919.1562 C.3      288 DC      0.0000
   1061 O3'       -3.2801    -7.4278   919.0766 O.3      288 DC      0.0000
   1062 C2'       -3.7253    -5.2029   920.2050 C.3      288 DC      0.0000
   1063 C1'       -2.8096    -4.2761   919.5086 C.3      288 DC      0.0000
   1064 N1        -2.9208    -2.8522   919.8407 N.am     288 DC      0.0000
   1065 C2        -1.7212    -2.1916   920.0965 C.2      288 DC      0.0000
   1066 O2        -0.6436    -2.7947   920.1010 O.2      288 DC      0.0000
   1067 N3        -1.7850    -0.8477   920.3703 N.2      288 DC      0.0000
   1068 C4        -2.9712    -0.1744   920.3604 C.2      288 DC      0.0000
   1069 N4        -2.9294     1.1242   920.6373 N.pl3    288 DC      0.0000
   1070 C5        -4.1775    -0.8541   920.0824 C.2      288 DC      0.0000
   1071 C6        -4.0983    -2.1744   919.8176 C.2      288 DC      0.0000
   1072 H5'       -5.4510    -5.9414   916.3946 H        288 DC      0.0000
   1073 H5''      -5.2718    -4.1969   916.7241 H        288 DC      0.0000
   1074 H4'       -3.3759    -6.0508   917.1788 H        288 DC      0.0000
   1075 H3'       -5.1225    -6.5557   919.2995 H        288 DC      0.0000
   1076 H2'       -4.6190    -4.6782   920.5429 H        288 DC      0.0000
   1077 H2''      -3.2191    -5.6686   921.0505 H        288 DC      0.0000
   1078 H1'       -1.7768    -4.6151   919.5896 H        288 DC      0.0000
   1079 H5        -5.1259    -0.3373   920.0818 H        288 DC      0.0000
   1080 H6        -5.0038    -2.7124   919.5786 H        288 DC      0.0000
   1081 H41       -2.0453     1.5699   920.8365 H        288 DC      0.0000
   1082 H42       -3.7819     1.6657   920.6486 H        288 DC      0.0000
   1083 P         -3.3914    -8.7372   920.0286 P.3      289 DA      0.0000
   1084 OP1       -2.8481    -9.9098   919.2349 O.co2    289 DA      0.0000
   1085 OP2       -4.8152    -8.9246   920.3741 O.co2    289 DA      0.0000
   1086 O5'       -2.4491    -8.3659   921.3256 O.3      289 DA      0.0000
   1087 C5'       -1.0855    -7.9338   921.0304 C.3      289 DA      0.0000
   1088 C4'       -0.3809    -7.5356   922.2857 C.3      289 DA      0.0000
   1089 O4'       -0.3218    -6.1267   922.5278 O.3      289 DA      0.0000
   1090 C3'       -0.9997    -8.0633   923.5909 C.3      289 DA      0.0000
   1091 O3'       -0.0104    -8.0030   924.6208 O.3      289 DA      0.0000
   1092 C2'       -2.0836    -6.9880   923.8055 C.3      289 DA      0.0000
   1093 C1'       -1.1650    -5.7752   923.6222 C.3      289 DA      0.0000
   1094 N9        -1.9741    -4.5719   923.5279 N.ar     289 DA      0.0000
   1095 C8        -3.3276    -4.4157   923.4121 C.ar     289 DA      0.0000
   1096 N7        -3.7450    -3.1625   923.3935 N.ar     289 DA      0.0000
   1097 C5        -2.5678    -2.4356   923.5010 C.ar     289 DA      0.0000
   1098 C6        -2.3123    -1.0425   923.5355 C.ar     289 DA      0.0000
   1099 N6        -3.2421    -0.1081   923.4503 N.pl3    289 DA      0.0000
   1100 N1        -1.0042    -0.6741   923.6681 N.ar     289 DA      0.0000
   1101 C2        -0.0074    -1.6099   923.7483 C.ar     289 DA      0.0000
   1102 N3        -0.1677    -2.9308   923.7184 N.ar     289 DA      0.0000
   1103 C4        -1.4722    -3.2783   923.5954 C.ar     289 DA      0.0000
   1104 H5'       -0.5434    -8.7536   920.5592 H        289 DA      0.0000
   1105 H5''      -1.1164    -7.0834   920.3491 H        289 DA      0.0000
   1106 H4'        0.6419    -7.9075   922.2268 H        289 DA      0.0000
   1107 H3'       -1.4214    -9.0619   923.4772 H        289 DA      0.0000
   1108 H2'       -2.8725    -7.0330   923.0547 H        289 DA      0.0000
   1109 H2''      -2.4918    -7.0296   924.8154 H        289 DA      0.0000
   1110 H1'       -0.5410    -5.6903   924.5119 H        289 DA      0.0000
   1111 H8        -4.0048    -5.2540   923.3411 H        289 DA      0.0000
   1112 H2         1.0032    -1.2415   923.8447 H        289 DA      0.0000
   1113 H61       -3.2595     0.8855   923.6303 H        289 DA      0.0000
   1114 H62       -4.1323    -0.4666   923.1355 H        289 DA      0.0000
   1115 P          1.1170    -9.1299   924.7613 P.3      290 DC      0.0000
   1116 OP1        1.3105    -9.9257   923.5162 O.co2    290 DC      0.0000
   1117 OP2        0.6001    -9.9550   925.9042 O.co2    290 DC      0.0000
   1118 O5'        2.4344    -8.2940   925.0445 O.3      290 DC      0.0000
   1119 C5'        3.1907    -7.6810   923.9567 C.3      290 DC      0.0000
   1120 C4'        3.8186    -6.4733   924.6617 C.3      290 DC      0.0000
   1121 O4'        2.7752    -5.5796   924.9737 O.3      290 DC      0.0000
   1122 C3'        4.5206    -6.8215   925.9716 C.3      290 DC      0.0000
   1123 O3'        5.8711    -6.3103   926.0395 O.3      290 DC      0.0000
   1124 C2'        3.5968    -6.2425   927.0538 C.3      290 DC      0.0000
   1125 C1'        3.0065    -5.0722   926.3776 C.3      290 DC      0.0000
   1126 N1         1.6783    -4.5774   926.7305 N.am     290 DC      0.0000
   1127 C2         1.5365    -3.1912   926.7036 C.2      290 DC      0.0000
   1128 O2         2.4764    -2.4340   926.4967 O.2      290 DC      0.0000
   1129 N3         0.2999    -2.6846   926.9567 N.2      290 DC      0.0000
   1130 C4        -0.7762    -3.4742   927.1901 C.2      290 DC      0.0000
   1131 N4        -1.9354    -2.8607   927.4210 N.pl3    290 DC      0.0000
   1132 C5        -0.6215    -4.8878   927.1966 C.2      290 DC      0.0000
   1133 C6         0.6016    -5.3805   926.9472 C.2      290 DC      0.0000
   1134 H5'        3.9535    -8.3578   923.5719 H        290 DC      0.0000
   1135 H5''       2.5236    -7.3573   923.1577 H        290 DC      0.0000
   1136 H4'        4.5248    -5.9866   923.9890 H        290 DC      0.0000
   1137 H3'        4.5496    -7.9060   926.0775 H        290 DC      0.0000
   1138 H2'        2.8285    -6.9605   927.3408 H        290 DC      0.0000
   1139 H2''       4.1745    -5.9311   927.9241 H        290 DC      0.0000
   1140 H1'        3.7206    -4.2489   926.3644 H        290 DC      0.0000
   1141 H5        -1.4582    -5.5413   927.3951 H        290 DC      0.0000
   1142 H6         0.7360    -6.4517   926.9174 H        290 DC      0.0000
   1143 H41       -1.9838    -1.8519   927.4099 H        290 DC      0.0000
   1144 H42       -2.7661    -3.4042   927.6071 H        290 DC      0.0000
   1145 P         -4.7155     7.0577   928.9990 P.3      290 DG      0.0000
   1146 OP1       -5.5952     8.2539   929.1778 O.co2    290 DG      0.0000
   1147 OP2       -5.2103     6.1102   927.9142 O.co2    290 DG      0.0000
   1148 O5'       -3.1589     7.5511   928.7918 O.3      290 DG      0.0000
   1149 C5'       -2.2012     7.3724   929.8876 C.3      290 DG      0.0000
   1150 C4'       -0.8682     6.9819   929.2533 C.3      290 DG      0.0000
   1151 O4'       -0.7195     5.5916   929.1575 O.3      290 DG      0.0000
   1152 C3'       -0.6519     7.5345   927.8469 C.3      290 DG      0.0000
   1153 O3'        0.6993     7.9759   927.5799 O.3      290 DG      0.0000
   1154 C2'       -1.0475     6.3517   926.9447 C.3      290 DG      0.0000
   1155 C1'       -0.5351     5.1820   927.7685 C.3      290 DG      0.0000
   1156 N9        -1.3114     3.9605   927.4952 N.ar     290 DG      0.0000
   1157 C8        -2.6719     3.8411   927.3385 C.ar     290 DG      0.0000
   1158 N7        -3.0759     2.6179   927.1201 N.ar     290 DG      0.0000
   1159 C5        -1.9020     1.8740   927.1449 C.ar     290 DG      0.0000
   1160 C6        -1.6710     0.4813   926.9884 C.2      290 DG      0.0000
   1161 O6        -2.5268    -0.3933   926.7916 O.2      290 DG      0.0000
   1162 N1        -0.3508     0.1141   927.0753 N.am     290 DG      0.0000
   1163 C2         0.6445     1.0076   927.2960 C.2      290 DG      0.0000
   1164 N2         1.8745     0.5052   927.3594 N.pl3    290 DG      0.0000
   1165 N3         0.4815     2.3269   927.4537 N.2      290 DG      0.0000
   1166 C4        -0.8141     2.6865   927.3704 C.ar     290 DG      0.0000
   1167 H5'       -2.0924     8.3025   930.4453 H        290 DG      0.0000
   1168 H5''      -2.5421     6.5789   930.5525 H        290 DG      0.0000
   1169 H4'       -0.0693     7.3620   929.8900 H        290 DG      0.0000
   1170 H3'       -1.3404     8.3622   927.6764 H        290 DG      0.0000
   1171 H2'       -2.1269     6.2995   926.8020 H        290 DG      0.0000
   1172 H2''      -0.5319     6.4060   925.9859 H        290 DG      0.0000
   1173 H1'        0.5216     5.0108   927.5632 H        290 DG      0.0000
   1174 H8        -3.3464     4.6829   927.3912 H        290 DG      0.0000
   1175 H1        -0.1115    -0.8615   926.9705 H        290 DG      0.0000
   1176 H21        2.0212    -0.4874   927.2443 H        290 DG      0.0000
   1177 H22        2.6619     1.1164   927.5225 H        290 DG      0.0000
   1178 P          1.1808     7.8529   926.0565 P.3      289 DT      0.0000
   1179 OP1        2.2221     8.8667   925.6656 O.co2    289 DT      0.0000
   1180 OP2       -0.1028     8.1034   925.3559 O.co2    289 DT      0.0000
   1181 O5'        1.7787     6.3721   925.9256 O.3      289 DT      0.0000
   1182 C5'        3.2086     6.2125   926.1932 C.3      289 DT      0.0000
   1183 C4'        3.7044     4.9997   925.4361 C.3      289 DT      0.0000
   1184 O4'        2.7619     3.9427   925.4089 O.3      289 DT      0.0000
   1185 C3'        4.0328     5.2981   923.9814 C.3      289 DT      0.0000
   1186 O3'        5.1970     4.6016   923.4863 O.3      289 DT      0.0000
   1187 C2'        2.7733     4.8749   923.2586 C.3      289 DT      0.0000
   1188 C1'        2.4545     3.6091   924.0367 C.3      289 DT      0.0000
   1189 N1         1.0104     3.3710   923.8854 N.am     289 DT      0.0000
   1190 C2         0.5910     2.0490   923.9922 C.2      289 DT      0.0000
   1191 O2         1.4053     1.1518   924.1819 O.2      289 DT      0.0000
   1192 N3        -0.7491     1.8077   923.8720 N.am     289 DT      0.0000
   1193 C4        -1.6455     2.8107   923.6544 C.2      289 DT      0.0000
   1194 O4        -2.8755     2.4878   923.5569 O.2      289 DT      0.0000
   1195 C5        -1.1859     4.1545   923.5480 C.2      289 DT      0.0000
   1196 C7        -2.1661     5.2691   923.3191 C.3      289 DT      0.0000
   1197 C6         0.1240     4.3843   923.6698 C.2      289 DT      0.0000
   1198 H5'        3.7467     7.0998   925.8595 H        289 DT      0.0000
   1199 H5''       3.3676     6.0678   927.2618 H        289 DT      0.0000
   1200 H4'        4.6097     4.6384   925.9241 H        289 DT      0.0000
   1201 H3'        4.1757     6.3715   923.8574 H        289 DT      0.0000
   1202 H2'        1.9820     5.6190   923.3501 H        289 DT      0.0000
   1203 H2''       2.9795     4.6497   922.2122 H        289 DT      0.0000
   1204 H1'        3.0425     2.7608   923.6860 H        289 DT      0.0000
   1205 H3        -1.0848     0.8581   923.9467 H        289 DT      0.0000
   1206 H6         0.4901     5.3976   923.5957 H        289 DT      0.0000
   1207 H71       -3.1737     4.8591   923.2504 H        289 DT      0.0000
   1208 H72       -2.1163     5.9728   924.1500 H        289 DT      0.0000
   1209 H73       -1.9196     5.7848   922.3909 H        289 DT      0.0000
   1210 P          6.1422     5.7220   922.7079 P.3      288 DG      0.0000
   1211 OP1        7.2027     6.3123   923.5792 O.co2    288 DG      0.0000
   1212 OP2        5.0721     6.6673   922.3024 O.co2    288 DG      0.0000
   1213 O5'        6.8647     4.7923   921.6271 O.3      288 DG      0.0000
   1214 C5'        7.9744     3.9602   922.0506 C.3      288 DG      0.0000
   1215 C4'        7.5990     2.5532   921.6029 C.3      288 DG      0.0000
   1216 O4'        6.2317     2.3175   921.8736 O.3      288 DG      0.0000
   1217 C3'        7.8248     2.2837   920.1151 C.3      288 DG      0.0000
   1218 O3'        8.6691     1.1658   919.9066 O.3      288 DG      0.0000
   1219 C2'        6.4255     2.1630   919.5384 C.3      288 DG      0.0000
   1220 C1'        5.6149     1.6966   920.7246 C.3      288 DG      0.0000
   1221 N9         4.2165     2.1169   920.6010 N.ar     288 DG      0.0000
   1222 C8         3.7215     3.3803   920.4421 C.ar     288 DG      0.0000
   1223 N7         2.4140     3.4287   920.3641 N.ar     288 DG      0.0000
   1224 C5         2.0177     2.1016   920.5016 C.ar     288 DG      0.0000
   1225 C6         0.7352     1.4923   920.5111 C.2      288 DG      0.0000
   1226 O6        -0.3517     2.0525   920.4120 O.2      288 DG      0.0000
   1227 N1         0.7522     0.1346   920.6600 N.am     288 DG      0.0000
   1228 C2         1.9237    -0.5708   920.7929 C.2      288 DG      0.0000
   1229 N2         1.7963    -1.8911   920.9286 N.pl3    288 DG      0.0000
   1230 N3         3.1594    -0.0607   920.7972 N.2      288 DG      0.0000
   1231 C4         3.1266     1.2854   920.6465 C.ar     288 DG      0.0000
   1232 H5'        8.8995     4.2813   921.5719 H        288 DG      0.0000
   1233 H5''       8.0794     3.9952   923.1349 H        288 DG      0.0000
   1234 H4'        8.1914     1.8399   922.1759 H        288 DG      0.0000
   1235 H3'        8.3019     3.1601   919.6766 H        288 DG      0.0000
   1236 H2'        6.0674     3.1251   919.1721 H        288 DG      0.0000
   1237 H2''       6.4026     1.4182   918.7429 H        288 DG      0.0000
   1238 H1'        5.6718     0.6116   920.8116 H        288 DG      0.0000
   1239 H8         4.3491     4.2574   920.3860 H        288 DG      0.0000
   1240 H1        -0.1245    -0.3667   920.6729 H        288 DG      0.0000
   1241 H21        0.8784    -2.3124   920.9295 H        288 DG      0.0000
   1242 H22        2.6177    -2.4698   921.0304 H        288 DG      0.0000
   1243 P          8.5855    -0.1532   919.0403 P.3      287 DA      0.0000
   1244 OP1        9.1712    -1.3362   919.8217 O.co2    287 DA      0.0000
   1245 OP2        9.3902     0.1208   917.8476 O.co2    287 DA      0.0000
   1246 O5'        6.9997    -0.4829   918.8655 O.3      287 DA      0.0000
   1247 C5'        6.4696    -1.2332   920.0220 C.3      287 DA      0.0000
   1248 C4'        6.0112    -2.5702   919.4942 C.3      287 DA      0.0000
   1249 O4'        4.6245    -2.6135   919.2719 O.3      287 DA      0.0000
   1250 C3'        6.6494    -2.9321   918.1537 C.3      287 DA      0.0000
   1251 O3'        7.0164    -4.2889   918.0785 O.3      287 DA      0.0000
   1252 C2'        5.6241    -2.4219   917.1571 C.3      287 DA      0.0000
   1253 C1'        4.3071    -2.3875   917.8809 C.3      287 DA      0.0000
   1254 N9         3.5957    -1.1177   917.6554 N.ar     287 DA      0.0000
   1255 C8         4.1153     0.1451   917.4691 C.ar     287 DA      0.0000
   1256 N7         3.2127     1.0786   917.2732 N.ar     287 DA      0.0000
   1257 C5         2.0128     0.3838   917.3601 C.ar     287 DA      0.0000
   1258 C6         0.6706     0.8177   917.2544 C.ar     287 DA      0.0000
   1259 N6         0.3182     2.0733   917.0419 N.pl3    287 DA      0.0000
   1260 N1        -0.2820    -0.1474   917.3781 N.ar     287 DA      0.0000
   1261 C2         0.0529    -1.4523   917.6026 C.ar     287 DA      0.0000
   1262 N3         1.2925    -1.9244   917.7185 N.ar     287 DA      0.0000
   1263 C4         2.2304    -0.9560   917.5824 C.ar     287 DA      0.0000
   1264 H5'        7.2502    -1.3719   920.7700 H        287 DA      0.0000
   1265 H5''       5.6270    -0.6971   920.4587 H        287 DA      0.0000
   1266 H4'        6.2710    -3.3390   920.2218 H        287 DA      0.0000
   1267 H3'        7.5534    -2.3337   918.0406 H        287 DA      0.0000
   1268 H2'        5.5655    -3.0929   916.3002 H        287 DA      0.0000
   1269 H2''       5.8935    -1.4187   916.8266 H        287 DA      0.0000
   1270 H1'        3.6860    -3.2084   917.5228 H        287 DA      0.0000
   1271 H8         5.1757     0.3497   917.4830 H        287 DA      0.0000
   1272 H2        -0.7564    -2.1615   917.6939 H        287 DA      0.0000
   1273 H61       -0.5742     2.4260   917.3573 H        287 DA      0.0000
   1274 H62        0.9521     2.6912   916.5557 H        287 DA      0.0000
   1275 P          6.9318    -5.3312   916.8939 P.3      286 DA      0.0000
   1276 OP1        7.2153    -6.7708   917.4138 O.co2    286 DA      0.0000
   1277 OP2        8.0287    -4.9268   915.9602 O.co2    286 DA      0.0000
   1278 O5'        5.4389    -5.3524   916.3912 O.3      286 DA      0.0000
   1279 C5'        4.5396    -6.3842   916.8470 C.3      286 DA      0.0000
   1280 C4'        3.2179    -6.1598   916.1451 C.3      286 DA      0.0000
   1281 O4'        2.8513    -4.8150   916.0244 O.3      286 DA      0.0000
   1282 C3'        3.1674    -6.7525   914.7376 C.3      286 DA      0.0000
   1283 O3'        2.2146    -7.8319   914.7061 O.3      286 DA      0.0000
   1284 C2'        2.9223    -5.5397   913.8380 C.3      286 DA      0.0000
   1285 C1'        2.1897    -4.5893   914.7358 C.3      286 DA      0.0000
   1286 N9         2.3342    -3.1685   914.4362 N.ar     286 DA      0.0000
   1287 C8         3.4828    -2.4295   914.2415 C.ar     286 DA      0.0000
   1288 N7         3.2618    -1.1503   914.0360 N.ar     286 DA      0.0000
   1289 C5         1.8880    -1.0284   914.1106 C.ar     286 DA      0.0000
   1290 C6         1.0312     0.0871   913.9771 C.ar     286 DA      0.0000
   1291 N6         1.4569     1.3229   913.7339 N.pl3    286 DA      0.0000
   1292 N1        -0.3057    -0.1821   914.1259 N.ar     286 DA      0.0000
   1293 C2        -0.7660    -1.4225   914.3784 C.ar     286 DA      0.0000
   1294 N3        -0.0180    -2.5212   914.5173 N.ar     286 DA      0.0000
   1295 C4         1.2986    -2.2528   914.3701 C.ar     286 DA      0.0000
   1296 H5'        4.9368    -7.3665   916.5919 H        286 DA      0.0000
   1297 H5''       4.4040    -6.3078   917.9258 H        286 DA      0.0000
   1298 H4'        2.4474    -6.6558   916.7352 H        286 DA      0.0000
   1299 H3'        4.1512    -7.1586   914.5026 H        286 DA      0.0000
   1300 H2'        3.8640    -5.1087   913.4981 H        286 DA      0.0000
   1301 H2''       2.3002    -5.8161   912.9867 H        286 DA      0.0000
   1302 H1'        1.1355    -4.8597   914.7969 H        286 DA      0.0000
   1303 H8         4.4722    -2.8623   914.2564 H        286 DA      0.0000
   1304 H2        -1.8351    -1.5397   914.4775 H        286 DA      0.0000
   1305 H61        0.8324     2.0602   914.0279 H        286 DA      0.0000
   1306 H62        2.3427     1.5113   913.2866 H        286 DA      0.0000
   1307 P          1.9687    -8.6151   913.3212 P.3      285 DT      0.0000
   1308 OP1        1.2281    -9.9156   913.3793 O.co2    285 DT      0.0000
   1309 OP2        3.3705    -8.6983   912.8085 O.co2    285 DT      0.0000
   1310 O5'        0.9303    -7.5173   912.6180 O.3      285 DT      0.0000
   1311 C5'       -0.0057    -7.0380   913.6303 C.3      285 DT      0.0000
   1312 C4'       -1.2276    -6.5123   912.9474 C.3      285 DT      0.0000
   1313 O4'       -1.2143    -5.1278   912.7670 O.3      285 DT      0.0000
   1314 C3'       -1.4964    -7.1351   911.5861 C.3      285 DT      0.0000
   1315 O3'       -2.8912    -7.3250   911.3189 O.3      285 DT      0.0000
   1316 C2'       -0.7955    -6.1033   910.6928 C.3      285 DT      0.0000
   1317 C1'       -1.2263    -4.8009   911.3328 C.3      285 DT      0.0000
   1318 N1        -0.2310    -3.7368   911.1029 N.am     285 DT      0.0000
   1319 C2        -0.6984    -2.4400   910.9812 C.2      285 DT      0.0000
   1320 O2        -1.9045    -2.1916   911.0180 O.2      285 DT      0.0000
   1321 N3         0.2202    -1.4395   910.8138 N.am     285 DT      0.0000
   1322 C4         1.5560    -1.6903   910.7653 C.2      285 DT      0.0000
   1323 O4         2.3327    -0.7063   910.5798 O.2      285 DT      0.0000
   1324 C5         2.0170    -3.0284   910.9137 C.2      285 DT      0.0000
   1325 C7         3.4928    -3.3446   910.8616 C.3      285 DT      0.0000
   1326 C6         1.1077    -3.9934   911.0867 C.2      285 DT      0.0000
   1327 H5'       -0.2810    -7.8590   914.2924 H        285 DT      0.0000
   1328 H5''       0.4599    -6.2412   914.2104 H        285 DT      0.0000
   1329 H4'       -2.0804    -6.7472   913.5844 H        285 DT      0.0000
   1330 H3'       -0.9781    -8.0913   911.5141 H        285 DT      0.0000
   1331 H2'        0.2876    -6.2218   910.7234 H        285 DT      0.0000
   1332 H2''      -1.1615    -6.1688   909.6682 H        285 DT      0.0000
   1333 H1'       -2.2193    -4.4996   910.9989 H        285 DT      0.0000
   1334 H3        -0.1034    -0.4870   910.7237 H        285 DT      0.0000
   1335 H6         1.4453    -5.0109   911.2181 H        285 DT      0.0000
   1336 H71        3.7597    -3.6708   909.8564 H        285 DT      0.0000
   1337 H72        3.7193    -4.1387   911.5732 H        285 DT      0.0000
   1338 H73        4.0647    -2.4529   911.1181 H        285 DT      0.0000
   1339 P         -3.2550    -7.8927   909.8289 P.3      284 DT      0.0000
   1340 OP1       -3.8525    -9.2932   909.9769 O.co2    284 DT      0.0000
   1341 OP2       -1.9139    -7.9836   909.1591 O.co2    284 DT      0.0000
   1342 O5'       -4.2481    -6.8972   909.1769 O.3      284 DT      0.0000
   1343 C5'       -5.1733    -6.1113   909.9283 C.3      284 DT      0.0000
   1344 C4'       -5.4252    -4.8415   909.1803 C.3      284 DT      0.0000
   1345 O4'       -4.4018    -3.8850   909.1233 O.3      284 DT      0.0000
   1346 C3'       -5.8953    -4.9596   907.7143 C.3      284 DT      0.0000
   1347 O3'       -6.7796    -3.8396   907.6105 O.3      284 DT      0.0000
   1348 C2'       -4.5841    -4.7312   906.9505 C.3      284 DT      0.0000
   1349 C1'       -4.1265    -3.5130   907.7262 C.3      284 DT      0.0000
   1350 N1        -2.7019    -3.1852   907.6201 N.am     284 DT      0.0000
   1351 C2        -2.3988    -1.8170   907.6194 C.2      284 DT      0.0000
   1352 O2        -3.2913    -0.9676   907.6625 O.2      284 DT      0.0000
   1353 N3        -1.0786    -1.4735   907.5660 N.am     284 DT      0.0000
   1354 C4        -0.0775    -2.3970   907.5062 C.2      284 DT      0.0000
   1355 O4         1.1171    -1.9771   907.4438 O.2      284 DT      0.0000
   1356 C5        -0.4131    -3.7783   907.5145 C.2      284 DT      0.0000
   1357 C7         0.6890    -4.8152   907.4531 C.3      284 DT      0.0000
   1358 C6        -1.7059    -4.1098   907.5810 C.2      284 DT      0.0000
   1359 H5'       -6.1079    -6.6587   910.0505 H        284 DT      0.0000
   1360 H5''      -4.7509    -5.8831   910.9069 H        284 DT      0.0000
   1361 H4'       -6.2456    -4.3545   909.7076 H        284 DT      0.0000
   1362 H3'       -6.3717    -5.9129   907.4855 H        284 DT      0.0000
   1363 H2'       -4.7491    -4.5151   905.8949 H        284 DT      0.0000
   1364 H2''      -3.8971    -5.5671   907.0821 H        284 DT      0.0000
   1365 H1'       -4.7280    -2.6479   907.4472 H        284 DT      0.0000
   1366 H3        -0.8331    -0.4938   907.5709 H        284 DT      0.0000
   1367 H6        -1.9707    -5.1565   907.6047 H        284 DT      0.0000
   1368 H71        1.6564    -4.3155   907.4042 H        284 DT      0.0000
   1369 H72        0.5553    -5.4351   906.5665 H        284 DT      0.0000
   1370 H73        0.6483    -5.4419   908.3440 H        284 DT      0.0000
   1371 P         -7.7864    -3.5513   906.4643 P.3      283 DC      0.0000
   1372 OP1       -9.1482    -3.2126   907.0734 O.co2    283 DC      0.0000
   1373 OP2       -7.8877    -4.8233   905.6824 O.co2    283 DC      0.0000
   1374 O5'       -7.0676    -2.2900   905.7249 O.3      283 DC      0.0000
   1375 C5'       -7.1527    -1.0191   906.4494 C.3      283 DC      0.0000
   1376 C4'       -7.2473     0.0567   905.3988 C.3      283 DC      0.0000
   1377 O4'       -6.0049     0.6737   905.1536 O.3      283 DC      0.0000
   1378 C3'       -7.7599    -0.4072   904.0344 C.3      283 DC      0.0000
   1379 O3'       -8.5308     0.5651   903.3251 O.3      283 DC      0.0000
   1380 C2'       -6.4402    -0.7862   903.3483 C.3      283 DC      0.0000
   1381 C1'       -5.4725     0.2616   903.8949 C.3      283 DC      0.0000
   1382 N1        -4.1365    -0.3684   904.0127 N.am     283 DC      0.0000
   1383 C2        -3.0333     0.4839   904.0299 C.2      283 DC      0.0000
   1384 O2        -3.1724     1.7128   903.9613 O.2      283 DC      0.0000
   1385 N3        -1.7969    -0.0940   904.1332 N.2      283 DC      0.0000
   1386 C4        -1.6326    -1.4409   904.2039 C.2      283 DC      0.0000
   1387 N4        -0.4058    -1.9569   904.3058 N.pl3    283 DC      0.0000
   1388 C5        -2.7754    -2.2882   904.1788 C.2      283 DC      0.0000
   1389 C6        -3.9896    -1.7197   904.0852 C.2      283 DC      0.0000
   1390 H5'       -8.0378    -1.0052   907.0853 H        283 DC      0.0000
   1391 H5''      -6.2570    -0.8732   907.0533 H        283 DC      0.0000
   1392 H4'       -7.9307     0.8216   905.7676 H        283 DC      0.0000
   1393 H3'       -8.3607    -1.3067   904.1686 H        283 DC      0.0000
   1394 H2'       -6.5256    -0.7161   902.2639 H        283 DC      0.0000
   1395 H2''      -6.1280    -1.7877   903.6443 H        283 DC      0.0000
   1396 H1'       -5.4235     1.1126   903.2155 H        283 DC      0.0000
   1397 H5        -2.6696    -3.3616   904.2336 H        283 DC      0.0000
   1398 H6        -4.8676    -2.3484   904.0671 H        283 DC      0.0000
   1399 H41        0.3987    -1.3467   904.3265 H        283 DC      0.0000
   1400 H42       -0.2821    -2.9578   904.3622 H        283 DC      0.0000
   1401 P         -8.5242     0.7988   901.6931 P.3      282 DA      0.0000
   1402 OP1       -9.8256     1.4661   901.3037 O.co2    282 DA      0.0000
   1403 OP2       -8.3245    -0.5613   901.1231 O.co2    282 DA      0.0000
   1404 O5'       -7.3489     1.8664   901.5276 O.3      282 DA      0.0000
   1405 C5'       -7.5998     3.2492   901.9930 C.3      282 DA      0.0000
   1406 C4'       -6.6512     4.0483   901.1158 C.3      282 DA      0.0000
   1407 O4'       -5.2986     3.6567   901.3831 O.3      282 DA      0.0000
   1408 C3'       -6.8413     3.7848   899.6114 C.3      282 DA      0.0000
   1409 O3'       -6.2287     4.7922   898.8223 O.3      282 DA      0.0000
   1410 C2'       -5.9641     2.5333   899.4239 C.3      282 DA      0.0000
   1411 C1'       -4.7384     3.1168   900.1785 C.3      282 DA      0.0000
   1412 N9        -3.8271     1.9864   900.3240 N.ar     282 DA      0.0000
   1413 C8        -4.1773     0.6567   900.3968 C.ar     282 DA      0.0000
   1414 N7        -3.1490    -0.1459   900.5115 N.ar     282 DA      0.0000
   1415 C5        -2.0469     0.7276   900.5051 C.ar     282 DA      0.0000
   1416 C6        -0.6522     0.4690   900.6050 C.ar     282 DA      0.0000
   1417 N6        -0.1302    -0.7548   900.7279 N.pl3    282 DA      0.0000
   1418 N1         0.1308     1.5834   900.5699 N.ar     282 DA      0.0000
   1419 C2        -0.3985     2.8256   900.4510 C.ar     282 DA      0.0000
   1420 N3        -1.6939     3.1398   900.3595 N.ar     282 DA      0.0000
   1421 C4        -2.4564     2.0328   900.3870 C.ar     282 DA      0.0000
   1422 H5'       -8.6363     3.5421   901.8263 H        282 DA      0.0000
   1423 H5''      -7.3338     3.3558   903.0447 H        282 DA      0.0000
   1424 H4'       -6.7719     5.1123   901.3197 H        282 DA      0.0000
   1425 H3'       -7.8834     3.6136   899.3417 H        282 DA      0.0000
   1426 H2'       -6.3781     1.6474   899.9055 H        282 DA      0.0000
   1427 H2''      -5.7406     2.3522   898.3725 H        282 DA      0.0000
   1428 H1'       -4.2718     3.9068   899.5901 H        282 DA      0.0000
   1429 H8        -5.1996     0.3099   900.3628 H        282 DA      0.0000
   1430 H2         0.3008     3.6483   900.4278 H        282 DA      0.0000
   1431 H61       -0.7364    -1.5622   900.7526 H        282 DA      0.0000
   1432 H62        0.8706    -0.8724   900.7960 H        282 DA      0.0000
   1433 P         -7.0438     5.5375   897.6814 P.3      281 DC      0.0000
   1434 OP1       -7.7727     6.6189   898.4617 O.co2    281 DC      0.0000
   1435 OP2       -7.9507     4.6409   896.9558 O.co2    281 DC      0.0000
   1436 O5'       -5.8159     6.0317   896.7055 O.3      281 DC      0.0000
   1437 C5'       -4.7300     6.7801   897.3745 C.3      281 DC      0.0000
   1438 C4'       -3.4222     6.4025   896.7305 C.3      281 DC      0.0000
   1439 O4'       -2.7619     5.3157   897.3676 O.3      281 DC      0.0000
   1440 C3'       -3.5758     6.0041   895.2527 C.3      281 DC      0.0000
   1441 O3'       -2.4616     6.3545   894.4414 O.3      281 DC      0.0000
   1442 C2'       -3.6181     4.4496   895.4183 C.3      281 DC      0.0000
   1443 C1'       -2.3249     4.4319   896.3139 C.3      281 DC      0.0000
   1444 N1        -1.9969     3.0506   896.5518 N.am     281 DC      0.0000
   1445 C2        -0.6873     2.7280   896.8690 C.2      281 DC      0.0000
   1446 O2         0.2956     3.4643   897.0094 O.2      281 DC      0.0000
   1447 N3        -0.3813     1.4101   897.0672 N.2      281 DC      0.0000
   1448 C4        -1.3208     0.4228   896.9512 C.2      281 DC      0.0000
   1449 N4        -0.9759    -0.8562   897.1673 N.pl3    281 DC      0.0000
   1450 C5        -2.6602     0.7693   896.6216 C.2      281 DC      0.0000
   1451 C6        -2.9349     2.0648   896.4299 C.2      281 DC      0.0000
   1452 H5'       -4.8989     7.8511   897.2631 H        281 DC      0.0000
   1453 H5''      -4.7052     6.5214   898.4331 H        281 DC      0.0000
   1454 H4'       -2.7629     7.2692   896.7772 H        281 DC      0.0000
   1455 H3'       -4.5074     6.3843   894.8337 H        281 DC      0.0000
   1456 H2'       -4.5088     4.0926   895.9354 H        281 DC      0.0000
   1457 H2''      -3.4638     3.9346   894.4701 H        281 DC      0.0000
   1458 H1'       -1.5073     4.9039   895.7690 H        281 DC      0.0000
   1459 H5        -3.4273     0.0146   896.5294 H        281 DC      0.0000
   1460 H6        -3.9444     2.3440   896.1666 H        281 DC      0.0000
   1461 H41       -0.0229    -1.0886   897.4078 H        281 DC      0.0000
   1462 H42       -1.6695    -1.5863   897.0893 H        281 DC      0.0000
   1463 P          8.1566    -5.8182   931.0406 P.3      291 DG      0.0000
   1464 OP1        8.8095    -7.1506   931.0390 O.co2    291 DG      0.0000
   1465 OP2        7.0426    -5.8719   932.0962 O.co2    291 DG      0.0000
   1466 O5'        9.1051    -4.5532   931.2189 O.3      291 DG      0.0000
   1467 C5'        9.5856    -3.6299   930.2189 C.3      291 DG      0.0000
   1468 C4'        9.3344    -2.2221   930.7177 C.3      291 DG      0.0000
   1469 O4'        8.0815    -1.7262   930.2986 O.3      291 DG      0.0000
   1470 C3'        9.4211    -1.9730   932.2099 C.3      291 DG      0.0000
   1471 O3'       10.3495    -0.8996   932.5219 O.3      291 DG      0.0000
   1472 C2'        7.9949    -1.6748   932.6318 C.3      291 DG      0.0000
   1473 C1'        7.3615    -1.1262   931.3762 C.3      291 DG      0.0000
   1474 N9         5.9259    -1.4599   931.3471 N.ar     291 DG      0.0000
   1475 C8         5.3060    -2.6656   931.5760 C.ar     291 DG      0.0000
   1476 N7         3.9959    -2.6209   931.4863 N.ar     291 DG      0.0000
   1477 C5         3.7308    -1.2912   931.1693 C.ar     291 DG      0.0000
   1478 C6         2.5155    -0.5990   930.9434 C.2      291 DG      0.0000
   1479 O6         1.3683    -1.0459   930.9646 O.2      291 DG      0.0000
   1480 N1         2.6478     0.7332   930.6619 N.am     291 DG      0.0000
   1481 C2         3.7941     1.3317   930.6012 C.2      291 DG      0.0000
   1482 N2         3.6391     2.5634   930.3044 N.pl3    291 DG      0.0000
   1483 N3         5.0431     0.7380   930.8100 N.2      291 DG      0.0000
   1484 C4         4.9054    -0.5675   931.0825 C.ar     291 DG      0.0000
   1485 H5'       10.6534    -3.7803   930.0602 H        291 DG      0.0000
   1486 H5''       9.0491    -3.7894   929.2836 H        291 DG      0.0000
   1487 H4'       10.0901    -1.5889   930.2530 H        291 DG      0.0000
   1488 H3'        9.7543    -2.8857   932.7039 H        291 DG      0.0000
   1489 H2'        7.4879    -2.5825   932.9588 H        291 DG      0.0000
   1490 H2''       7.9812    -0.9254   933.4233 H        291 DG      0.0000
   1491 H1'        7.4875    -0.0439   931.3442 H        291 DG      0.0000
   1492 H8         5.8483    -3.5700   931.8091 H        291 DG      0.0000
   1493 H1         1.8122     1.2750   930.4935 H        291 DG      0.0000
   1494 H21        2.7112     2.9352   930.1601 H        291 DG      0.0000
   1495 H22        4.4444     3.1663   930.2140 H        291 DG      0.0000
   1496 P         10.4329    -0.2326   933.9505 P.3      292 DT      0.0000
   1497 OP1       11.8153     0.0798   934.4621 O.co2    292 DT      0.0000
   1498 OP2        9.9205    -1.3567   934.8691 O.co2    292 DT      0.0000
   1499 O5'        9.4262     0.9458   933.9791 O.3      292 DT      0.0000
   1500 C5'        9.8265     2.3363   933.8351 C.3      292 DT      0.0000
   1501 C4'        8.5289     3.1150   933.8926 C.3      292 DT      0.0000
   1502 O4'        7.4079     2.3039   933.6174 O.3      292 DT      0.0000
   1503 C3'        8.2048     3.7822   935.2053 C.3      292 DT      0.0000
   1504 O3'        8.2181     5.2049   935.0171 O.3      292 DT      0.0000
   1505 C2'        6.8154     3.2802   935.5975 C.3      292 DT      0.0000
   1506 C1'        6.2515     2.9310   934.2448 C.3      292 DT      0.0000
   1507 N1         5.2028     1.9154   934.3414 N.am     292 DT      0.0000
   1508 C2         3.9112     2.3223   934.1435 C.2      292 DT      0.0000
   1509 O2         3.6168     3.4914   933.9053 O.2      292 DT      0.0000
   1510 N3         2.9365     1.3645   934.2246 N.am     292 DT      0.0000
   1511 C4         3.2036     0.0638   934.4805 C.2      292 DT      0.0000
   1512 O4         2.2038    -0.6998   934.5257 O.2      292 DT      0.0000
   1513 C5         4.5616    -0.3439   934.6802 C.2      292 DT      0.0000
   1514 C7         4.8997    -1.7721   934.9601 C.3      292 DT      0.0000
   1515 C6         5.5085     0.5996   934.5987 C.2      292 DT      0.0000
   1516 H5'       10.4890     2.6321   934.6485 H        292 DT      0.0000
   1517 H5''      10.3169     2.4904   932.8739 H        292 DT      0.0000
   1518 H4'        8.5730     3.8906   933.1280 H        292 DT      0.0000
   1519 H3'        8.9351     3.4965   935.9624 H        292 DT      0.0000
   1520 H2'        6.8727     2.4062   936.2463 H        292 DT      0.0000
   1521 H2''       6.2343     4.0742   936.0668 H        292 DT      0.0000
   1522 H1'        5.9180     3.8138   933.6995 H        292 DT      0.0000
   1523 H3         1.9751     1.6417   934.0871 H        292 DT      0.0000
   1524 H6         6.5419     0.3190   934.7390 H        292 DT      0.0000
   1525 H71        5.2879    -2.2383   934.0545 H        292 DT      0.0000
   1526 H72        4.0033    -2.3004   935.2848 H        292 DT      0.0000
   1527 H73        5.6541    -1.8197   935.7454 H        292 DT      0.0000
   1528 P          8.8168     6.0107   936.2970 P.3      293 DG      0.0000
   1529 OP1        9.5550     7.1352   935.5820 O.co2    293 DG      0.0000
   1530 OP2        9.6821     5.1209   937.0506 O.co2    293 DG      0.0000
   1531 O5'        7.3674     6.4487   936.9066 O.3      293 DG      0.0000
   1532 C5'        6.5134     6.9632   935.8160 C.3      293 DG      0.0000
   1533 C4'        5.1081     7.0387   936.3360 C.3      293 DG      0.0000
   1534 O4'        4.3111     5.8987   936.1554 O.3      293 DG      0.0000
   1535 C3'        5.0527     7.3854   937.8440 C.3      293 DG      0.0000
   1536 O3'        4.2000     8.5451   938.0029 O.3      293 DG      0.0000
   1537 C2'        4.5765     6.1052   938.4966 C.3      293 DG      0.0000
   1538 C1'        3.6745     5.5222   937.4151 C.3      293 DG      0.0000
   1539 N9         3.5041     4.0749   937.5846 N.ar     293 DG      0.0000
   1540 C8         4.4407     3.1367   937.9208 C.ar     293 DG      0.0000
   1541 N7         3.9797     1.9083   938.0066 N.ar     293 DG      0.0000
   1542 C5         2.6344     2.0563   937.6765 C.ar     293 DG      0.0000
   1543 C6         1.5874     1.0954   937.5822 C.2      293 DG      0.0000
   1544 O6         1.6507    -0.1280   937.7745 O.2      293 DG      0.0000
   1545 N1         0.3609     1.6219   937.2471 N.am     293 DG      0.0000
   1546 C2         0.1852     2.9534   937.0234 C.2      293 DG      0.0000
   1547 N2        -1.0749     3.2865   936.7146 N.pl3    293 DG      0.0000
   1548 N3         1.1302     3.8881   937.0944 N.2      293 DG      0.0000
   1549 C4         2.3292     3.3759   937.4210 C.ar     293 DG      0.0000
   1550 H5'        6.8520     7.9547   935.5155 H        293 DG      0.0000
   1551 H5''       6.5552     6.2851   934.9636 H        293 DG      0.0000
   1552 H4'        4.6177     7.8549   935.8054 H        293 DG      0.0000
   1553 H3'        6.0559     7.6218   938.1988 H        293 DG      0.0000
   1554 H2'        5.4102     5.4394   938.7196 H        293 DG      0.0000
   1555 H2''       4.0050     6.3223   939.3990 H        293 DG      0.0000
   1556 H1'        2.6976     6.0019   937.4740 H        293 DG      0.0000
   1557 H8         5.4761     3.3849   938.1014 H        293 DG      0.0000
   1558 H1        -0.4325     1.0023   937.1648 H        293 DG      0.0000
   1559 H21       -1.7881     2.5730   936.6643 H        293 DG      0.0000
   1560 H22       -1.3120     4.2512   936.5319 H        293 DG      0.0000
   1561 P          4.0118     9.2383   939.3913 P.3      294 DA      0.0000
   1562 OP1        4.9877    10.3128   939.7467 O.co2    294 DA      0.0000
   1563 OP2        4.3374     7.9871   940.2871 O.co2    294 DA      0.0000
   1564 O5'        2.4668     9.4945   939.6404 O.3      294 DA      0.0000
   1565 C5'        1.4715     9.5955   938.6114 C.3      294 DA      0.0000
   1566 C4'        0.3153     8.7301   939.0857 C.3      294 DA      0.0000
   1567 O4'        0.6551     7.3630   938.9953 O.3      294 DA      0.0000
   1568 C3'       -0.1702     8.9736   940.5148 C.3      294 DA      0.0000
   1569 O3'       -1.6082     9.0757   940.5670 O.3      294 DA      0.0000
   1570 C2'        0.3699     7.7410   941.2502 C.3      294 DA      0.0000
   1571 C1'        0.1344     6.6935   940.1726 C.3      294 DA      0.0000
   1572 N9         0.8563     5.4377   940.4010 N.ar     294 DA      0.0000
   1573 C8         2.1870     5.2165   940.6168 C.ar     294 DA      0.0000
   1574 N7         2.4966     3.9498   940.7818 N.ar     294 DA      0.0000
   1575 C5         1.2847     3.2902   940.6416 C.ar     294 DA      0.0000
   1576 C6         0.9552     1.9180   940.6895 C.ar     294 DA      0.0000
   1577 N6         1.8345     0.9377   940.9093 N.pl3    294 DA      0.0000
   1578 N1        -0.3667     1.6294   940.4997 N.ar     294 DA      0.0000
   1579 C2        -1.2751     2.6082   940.2820 C.ar     294 DA      0.0000
   1580 N3        -1.0382     3.9182   940.2237 N.ar     294 DA      0.0000
   1581 C4         0.2675     4.1837   940.4106 C.ar     294 DA      0.0000
   1582 H5'        1.8627     9.2241   937.6642 H        294 DA      0.0000
   1583 H5''       1.1465    10.6303   938.5036 H        294 DA      0.0000
   1584 H4'       -0.5264     8.9066   938.4159 H        294 DA      0.0000
   1585 H3'        0.2850     9.8790   940.9162 H        294 DA      0.0000
   1586 H2'        1.4270     7.8431   941.4957 H        294 DA      0.0000
   1587 H2''      -0.2203     7.5263   942.1411 H        294 DA      0.0000
   1588 H1'       -0.9324     6.5013   940.0581 H        294 DA      0.0000
   1589 H8         2.9183     6.0106   940.6489 H        294 DA      0.0000
   1590 H2        -2.2991     2.2951   940.1406 H        294 DA      0.0000
   1591 H61        2.8360     1.0258   940.8119 H        294 DA      0.0000
   1592 H62        1.5437    -0.0142   940.7378 H        294 DA      0.0000
   1593 P         -2.3852     9.9655   941.7085 P.3      295 DA      0.0000
   1594 OP1       -3.1750    11.0639   941.0414 O.co2    295 DA      0.0000
   1595 OP2       -1.2502    10.4164   942.5394 O.co2    295 DA      0.0000
   1596 O5'       -3.4953     8.9502   942.2393 O.3      295 DA      0.0000
   1597 C5'       -4.5232     8.4033   941.4150 C.3      295 DA      0.0000
   1598 C4'       -4.8600     7.0177   941.9373 C.3      295 DA      0.0000
   1599 O4'       -3.7268     6.1966   941.9655 O.3      295 DA      0.0000
   1600 C3'       -5.5149     6.9250   943.3046 C.3      295 DA      0.0000
   1601 O3'       -6.8307     6.3772   943.2268 O.3      295 DA      0.0000
   1602 C2'       -4.5163     6.1075   944.1334 C.3      295 DA      0.0000
   1603 C1'       -3.7525     5.3218   943.1396 C.3      295 DA      0.0000
   1604 N9        -2.3550     4.9367   943.4076 N.ar     295 DA      0.0000
   1605 C8        -1.2301     5.7170   943.5228 C.ar     295 DA      0.0000
   1606 N7        -0.1206     5.0376   943.6921 N.ar     295 DA      0.0000
   1607 C5        -0.5356     3.7103   943.6551 C.ar     295 DA      0.0000
   1608 C6         0.1854     2.4882   943.7755 C.ar     295 DA      0.0000
   1609 N6         1.4943     2.3817   943.9672 N.pl3    295 DA      0.0000
   1610 N1        -0.5665     1.3442   943.6774 N.ar     295 DA      0.0000
   1611 C2        -1.9162     1.4138   943.4883 C.ar     295 DA      0.0000
   1612 N3        -2.6487     2.5164   943.3804 N.ar     295 DA      0.0000
   1613 C4        -1.8968     3.6316   943.4723 C.ar     295 DA      0.0000
   1614 H5'       -4.1733     8.3347   940.3850 H        295 DA      0.0000
   1615 H5''      -5.4080     9.0383   941.4610 H        295 DA      0.0000
   1616 H4'       -5.5541     6.5723   941.2246 H        295 DA      0.0000
   1617 H3'       -5.5798     7.9274   943.7278 H        295 DA      0.0000
   1618 H2'       -3.8528     6.7662   944.6936 H        295 DA      0.0000
   1619 H2''      -5.0474     5.4410   944.8129 H        295 DA      0.0000
   1620 H1'       -4.3203     4.4245   942.8935 H        295 DA      0.0000
   1621 H8        -1.2568     6.7957   943.4779 H        295 DA      0.0000
   1622 H2        -2.4439     0.4740   943.4191 H        295 DA      0.0000
   1623 H61        2.0559     3.1553   944.2934 H        295 DA      0.0000
   1624 H62        1.9442     1.4970   943.7804 H        295 DA      0.0000
   1625 P         -8.0817     6.7834   944.1830 P.3      296 DT      0.0000
   1626 OP1       -9.3739     6.9196   943.3857 O.co2    296 DT      0.0000
   1627 OP2       -7.7476     7.9286   945.0036 O.co2    296 DT      0.0000
   1628 O5'       -8.3439     5.3783   944.9967 O.3      296 DT      0.0000
   1629 C5'       -8.1947     4.2342   944.0516 C.3      296 DT      0.0000
   1630 C4'       -7.4365     3.1962   944.8393 C.3      296 DT      0.0000
   1631 O4'       -6.0761     3.5130   945.0313 O.3      296 DT      0.0000
   1632 C3'       -8.0098     3.0070   946.2559 C.3      296 DT      0.0000
   1633 O3'       -8.8700     1.8827   946.2576 O.3      296 DT      0.0000
   1634 C2'       -6.7816     2.8767   947.1532 C.3      296 DT      0.0000
   1635 C1'       -5.6865     2.6522   946.1886 C.3      296 DT      0.0000
   1636 N1        -4.3173     3.0055   946.5283 N.am     296 DT      0.0000
   1637 C2        -3.4134     1.9568   946.6663 C.2      296 DT      0.0000
   1638 O2        -3.8049     0.8002   946.5782 O.2      296 DT      0.0000
   1639 N3        -2.1097     2.2594   946.9203 N.am     296 DT      0.0000
   1640 C4        -1.6604     3.5433   947.0404 C.2      296 DT      0.0000
   1641 O4        -0.4300     3.7435   947.2956 O.2      296 DT      0.0000
   1642 C5        -2.6054     4.6079   946.8688 C.2      296 DT      0.0000
   1643 C7        -2.1582     6.0407   946.9563 C.3      296 DT      0.0000
   1644 C6        -3.8896     4.3039   946.6130 C.2      296 DT      0.0000
   1645 H5'       -9.1704     3.8531   943.7500 H        296 DT      0.0000
   1646 H5''      -7.6206     4.5388   943.1766 H        296 DT      0.0000
   1647 H4'       -7.4995     2.2452   944.3102 H        296 DT      0.0000
   1648 H3'       -8.5738     3.8954   946.5403 H        296 DT      0.0000
   1649 H2'       -6.6172     3.7890   947.7266 H        296 DT      0.0000
   1650 H2''      -6.8848     2.0204   947.8196 H        296 DT      0.0000
   1651 H1'       -5.7092     1.6097   945.8712 H        296 DT      0.0000
   1652 H3        -1.4483     1.5032   947.0240 H        296 DT      0.0000
   1653 H6        -4.6018     5.1034   946.4709 H        296 DT      0.0000
   1654 H71       -1.0898     6.0760   947.1694 H        296 DT      0.0000
   1655 H72       -2.3562     6.5414   946.0085 H        296 DT      0.0000
   1656 H73       -2.7046     6.5439   947.7541 H        296 DT      0.0000
   1657 P         -9.8456     1.3998   947.3642 P.3      297 DT      0.0000
   1658 OP1      -10.9597     0.5118   946.7521 O.co2    297 DT      0.0000
   1659 OP2      -10.4009     2.6254   947.9942 O.co2    297 DT      0.0000
   1660 O5'       -8.9785     0.3793   948.2465 O.3      297 DT      0.0000
   1661 C5'       -8.6786    -0.8513   947.5348 C.3      297 DT      0.0000
   1662 C4'       -7.5371    -1.5279   948.2109 C.3      297 DT      0.0000
   1663 O4'       -6.3291    -0.7777   948.1876 O.3      297 DT      0.0000
   1664 C3'       -7.7988    -1.8996   949.6776 C.3      297 DT      0.0000
   1665 O3'       -7.3282    -3.2077   949.9416 O.3      297 DT      0.0000
   1666 C2'       -6.9135    -0.8662   950.4139 C.3      297 DT      0.0000
   1667 C1'       -5.7012    -0.9637   949.5103 C.3      297 DT      0.0000
   1668 N1        -4.7420     0.0839   949.8080 N.am     297 DT      0.0000
   1669 C2        -3.3978    -0.2468   949.8629 C.2      297 DT      0.0000
   1670 O2        -3.0637    -1.4175   949.6744 O.2      297 DT      0.0000
   1671 N3        -2.4981     0.7467   950.1288 N.am     297 DT      0.0000
   1672 C4        -2.8813     2.0363   950.3358 C.2      297 DT      0.0000
   1673 O4        -1.9905     2.9052   950.5591 O.2      297 DT      0.0000
   1674 C5        -4.2665     2.3658   950.2707 C.2      297 DT      0.0000
   1675 C7        -4.7671     3.7652   950.4806 C.3      297 DT      0.0000
   1676 C6        -5.1365     1.3777   950.0096 C.2      297 DT      0.0000
   1677 H5'       -9.5513    -1.5041   947.5472 H        297 DT      0.0000
   1678 H5''      -8.4087    -0.6211   946.5041 H        297 DT      0.0000
   1679 H4'       -7.3492    -2.4568   947.6724 H        297 DT      0.0000
   1680 H3'       -8.8509    -1.7890   949.9400 H        297 DT      0.0000
   1681 H2'       -7.3523     0.1315   950.4127 H        297 DT      0.0000
   1682 H2''      -6.6800    -1.1949   951.4266 H        297 DT      0.0000
   1683 H1'       -5.2381    -1.9475   949.5860 H        297 DT      0.0000
   1684 H3        -1.5157     0.5164   950.1732 H        297 DT      0.0000
   1685 H6        -6.1890     1.6136   949.9565 H        297 DT      0.0000
   1686 H71       -3.9243     4.4271   950.6795 H        297 DT      0.0000
   1687 H72       -5.2898     4.1019   949.5853 H        297 DT      0.0000
   1688 H73       -5.4511     3.7829   951.3290 H        297 DT      0.0000
   1689 P         -7.9234    -4.5265   950.5496 P.3      298 DC      0.0000
   1690 OP1       -8.1334    -5.5827   949.4816 O.co2    298 DC      0.0000
   1691 OP2       -9.1306    -4.1069   951.2845 O.co2    298 DC      0.0000
   1692 O5'       -6.5871    -4.9648   951.3756 O.3      298 DC      0.0000
   1693 C5'       -5.5244    -4.9342   950.3533 C.3      298 DC      0.0000
   1694 C4'       -4.2336    -5.2588   951.0498 C.3      298 DC      0.0000
   1695 O4'       -3.4575    -4.1275   951.2967 O.3      298 DC      0.0000
   1696 C3'       -4.3778    -6.0560   952.3413 C.3      298 DC      0.0000
   1697 O3'       -3.6308    -7.2628   952.2616 O.3      298 DC      0.0000
   1698 C2'       -3.9693    -5.0193   953.3900 C.3      298 DC      0.0000
   1699 C1'       -3.0104    -4.1372   952.6936 C.3      298 DC      0.0000
   1700 N1        -3.0535    -2.7096   953.0257 N.am     298 DC      0.0000
   1701 C2        -1.8238    -2.1070   953.2815 C.2      298 DC      0.0000
   1702 O2        -0.7762    -2.7608   953.2860 O.2      298 DC      0.0000
   1703 N3        -1.8234    -0.7616   953.5554 N.2      298 DC      0.0000
   1704 C4        -2.9761    -0.0325   953.5455 C.2      298 DC      0.0000
   1705 N4        -2.8725     1.2627   953.8223 N.pl3    298 DC      0.0000
   1706 C5        -4.2135    -0.6538   953.2674 C.2      298 DC      0.0000
   1707 C6        -4.1974    -1.9764   953.0026 C.2      298 DC      0.0000
   1708 H5'       -5.7283    -5.6745   949.5797 H        298 DC      0.0000
   1709 H5''      -5.4660    -3.9406   949.9091 H        298 DC      0.0000
   1710 H4'       -3.6608    -5.8828   950.3639 H        298 DC      0.0000
   1711 H3'       -5.4295    -6.3038   952.4846 H        298 DC      0.0000
   1712 H2'       -4.8369    -4.4525   953.7279 H        298 DC      0.0000
   1713 H2''      -3.4859    -5.5086   954.2356 H        298 DC      0.0000
   1714 H1'       -1.9950    -4.5251   952.7746 H        298 DC      0.0000
   1715 H5        -5.1361    -0.0924   953.2669 H        298 DC      0.0000
   1716 H6        -5.1275    -2.4705   952.7636 H        298 DC      0.0000
   1717 H41       -1.9681     1.6657   954.0215 H        298 DC      0.0000
   1718 H42       -3.6981     1.8443   953.8336 H        298 DC      0.0000
   1719 P         -3.8044    -8.5655   953.2136 P.3      299 DA      0.0000
   1720 OP1       -3.3177    -9.7627   952.4199 O.co2    299 DA      0.0000
   1721 OP2       -5.2356    -8.6847   953.5592 O.co2    299 DA      0.0000
   1722 O5'       -2.8454    -8.2395   954.5107 O.3      299 DA      0.0000
   1723 C5'       -1.4628    -7.8729   954.2154 C.3      299 DA      0.0000
   1724 C4'       -0.7400    -7.5088   955.4707 C.3      299 DA      0.0000
   1725 O4'       -0.6137    -6.1044   955.7128 O.3      299 DA      0.0000
   1726 C3'       -1.3833    -8.0064   956.7759 C.3      299 DA      0.0000
   1727 O3'       -0.3922    -7.9934   957.8059 O.3      299 DA      0.0000
   1728 C2'       -2.4146    -6.8806   956.9905 C.3      299 DA      0.0000
   1729 C1'       -1.4392    -5.7131   956.8073 C.3      299 DA      0.0000
   1730 N9        -2.1900    -4.4725   956.7129 N.ar     299 DA      0.0000
   1731 C8        -3.5345    -4.2519   956.5971 C.ar     299 DA      0.0000
   1732 N7        -3.8916    -2.9802   956.5785 N.ar     299 DA      0.0000
   1733 C5        -2.6811    -2.3103   956.6860 C.ar     299 DA      0.0000
   1734 C6        -2.3594    -0.9310   956.7206 C.ar     299 DA      0.0000
   1735 N6        -3.2436     0.0467   956.6353 N.pl3    299 DA      0.0000
   1736 N1        -1.0352    -0.6255   956.8531 N.ar     299 DA      0.0000
   1737 C2        -0.0842    -1.6077   956.9333 C.ar     299 DA      0.0000
   1738 N3        -0.3073    -2.9195   956.9035 N.ar     299 DA      0.0000
   1739 C4        -1.6270    -3.2043   956.7805 C.ar     299 DA      0.0000
   1740 H5'       -0.9604    -8.7177   953.7443 H        299 DA      0.0000
   1741 H5''      -1.4531    -7.0221   953.5341 H        299 DA      0.0000
   1742 H4'        0.2639    -7.9291   955.4118 H        299 DA      0.0000
   1743 H3'       -1.8521    -8.9838   956.6623 H        299 DA      0.0000
   1744 H2'       -3.2048    -6.8879   956.2398 H        299 DA      0.0000
   1745 H2''      -2.8243    -6.9028   958.0004 H        299 DA      0.0000
   1746 H1'       -0.8119    -5.6580   957.6969 H        299 DA      0.0000
   1747 H8        -4.2509    -5.0570   956.5261 H        299 DA      0.0000
   1748 H2         0.9428    -1.2879   957.0298 H        299 DA      0.0000
   1749 H61       -3.2136     1.0400   956.8154 H        299 DA      0.0000
   1750 H62       -4.1499    -0.2689   956.3206 H        299 DA      0.0000
   1751 P          0.6801    -9.1728   957.9463 P.3      300 DC      0.0000
   1752 OP1        0.8354    -9.9769   956.7012 O.co2    300 DC      0.0000
   1753 OP2        0.1245    -9.9723   959.0892 O.co2    300 DC      0.0000
   1754 O5'        2.0360    -8.4007   958.2295 O.3      300 DC      0.0000
   1755 C5'        2.8206    -7.8245   957.1418 C.3      300 DC      0.0000
   1756 C4'        3.5054    -6.6481   957.8467 C.3      300 DC      0.0000
   1757 O4'        2.5058    -5.7057   958.1587 O.3      300 DC      0.0000
   1758 C3'        4.1900    -7.0294   959.1566 C.3      300 DC      0.0000
   1759 O3'        5.5633    -6.5832   959.2245 O.3      300 DC      0.0000
   1760 C2'        3.2949    -6.4070   960.2388 C.3      300 DC      0.0000
   1761 C1'        2.7610    -5.2099   959.5627 C.3      300 DC      0.0000
   1762 N1         1.4580    -4.6522   959.9155 N.am     300 DC      0.0000
   1763 C2         1.3825    -3.2609   959.8886 C.2      300 DC      0.0000
   1764 O2         2.3575    -2.5494   959.6817 O.2      300 DC      0.0000
   1765 N3         0.1715    -2.6959   960.1417 N.2      300 DC      0.0000
   1766 C4        -0.9411    -3.4332   960.3751 C.2      300 DC      0.0000
   1767 N4        -2.0697    -2.7651   960.6060 N.pl3    300 DC      0.0000
   1768 C5        -0.8540    -4.8526   960.3816 C.2      300 DC      0.0000
   1769 C6         0.3442    -5.4031   960.1322 C.2      300 DC      0.0000
   1770 H5'        3.5503    -8.5369   956.7569 H        300 DC      0.0000
   1771 H5''       2.1697    -7.4693   956.3428 H        300 DC      0.0000
   1772 H4'        4.2340    -6.1957   957.1741 H        300 DC      0.0000
   1773 H3'        4.1672    -8.1140   959.2625 H        300 DC      0.0000
   1774 H2'        2.4932    -7.0875   960.5258 H        300 DC      0.0000
   1775 H2''       3.8868    -6.1235   961.1091 H        300 DC      0.0000
   1776 H1'        3.5136    -4.4216   959.5494 H        300 DC      0.0000
   1777 H5        -1.7209    -5.4654   960.5801 H        300 DC      0.0000
   1778 H6         0.4273    -6.4794   960.1025 H        300 DC      0.0000
   1779 H41       -2.0699    -1.7552   960.5950 H        300 DC      0.0000
   1780 H42       -2.9254    -3.2684   960.7922 H        300 DC      0.0000
   1781 P         -4.3734     7.2746   962.1841 P.3      300 DG      0.0000
   1782 OP1       -5.1950     8.5115   962.3628 O.co2    300 DG      0.0000
   1783 OP2       -4.9129     6.3518   961.0992 O.co2    300 DG      0.0000
   1784 O5'       -2.7950     7.6932   961.9768 O.3      300 DG      0.0000
   1785 C5'       -1.8469     7.4690   963.0726 C.3      300 DG      0.0000
   1786 C4'       -0.5341     7.0154   962.4383 C.3      300 DG      0.0000
   1787 O4'       -0.4519     5.6196   962.3425 O.3      300 DG      0.0000
   1788 C3'       -0.2917     7.5570   961.0320 C.3      300 DG      0.0000
   1789 O3'        1.0790     7.9335   960.7650 O.3      300 DG      0.0000
   1790 C2'       -0.7433     6.3944   960.1297 C.3      300 DG      0.0000
   1791 C1'       -0.2873     5.2017   960.9535 C.3      300 DG      0.0000
   1792 N9        -1.1210     4.0186   960.6802 N.ar     300 DG      0.0000
   1793 C8        -2.4856     3.9642   960.5235 C.ar     300 DG      0.0000
   1794 N7        -2.9475     2.7617   960.3051 N.ar     300 DG      0.0000
   1795 C5        -1.8104     1.9626   960.3299 C.ar     300 DG      0.0000
   1796 C6        -1.6462     0.5605   960.1735 C.2      300 DG      0.0000
   1797 O6        -2.5427    -0.2723   959.9766 O.2      300 DG      0.0000
   1798 N1        -0.3450     0.1307   960.2604 N.am     300 DG      0.0000
   1799 C2         0.6918     0.9757   960.4811 C.2      300 DG      0.0000
   1800 N2         1.8965     0.4152   960.5444 N.pl3    300 DG      0.0000
   1801 N3         0.5920     2.3012   960.6388 N.2      300 DG      0.0000
   1802 C4        -0.6850     2.7222   960.5555 C.ar     300 DG      0.0000
   1803 H5'       -1.6939     8.3929   963.6304 H        300 DG      0.0000
   1804 H5''      -2.2253     6.6927   963.7375 H        300 DG      0.0000
   1805 H4'        0.2820     7.3569   963.0750 H        300 DG      0.0000
   1806 H3'       -0.9399     8.4166   960.8615 H        300 DG      0.0000
   1807 H2'       -1.8239     6.3938   959.9870 H        300 DG      0.0000
   1808 H2''      -0.2256     6.4241   959.1709 H        300 DG      0.0000
   1809 H1'        0.7601     4.9802   960.7483 H        300 DG      0.0000
   1810 H8        -3.1192     4.8372   960.5763 H        300 DG      0.0000
   1811 H1        -0.1524    -0.8552   960.1556 H        300 DG      0.0000
   1812 H21        1.9956    -0.5833   960.4293 H        300 DG      0.0000
   1813 H22        2.7121     0.9881   960.7076 H        300 DG      0.0000
   1814 P          1.5541     7.7876   959.2415 P.3      299 DT      0.0000
   1815 OP1        2.6426     8.7506   958.8506 O.co2    299 DT      0.0000
   1816 OP2        0.2840     8.0991   958.5410 O.co2    299 DT      0.0000
   1817 O5'        2.0807     6.2800   959.1106 O.3      299 DT      0.0000
   1818 C5'        3.5014     6.0523   959.3782 C.3      299 DT      0.0000
   1819 C4'        3.9388     4.8172   958.6212 C.3      299 DT      0.0000
   1820 O4'        2.9469     3.8064   958.5939 O.3      299 DT      0.0000
   1821 C3'        4.2810     5.0996   957.1665 C.3      299 DT      0.0000
   1822 O3'        5.4106     4.3484   956.6714 O.3      299 DT      0.0000
   1823 C2'        3.0027     4.7371   956.4436 C.3      299 DT      0.0000
   1824 C1'        2.6239     3.4878   957.2217 C.3      299 DT      0.0000
   1825 N1         1.1701     3.3190   957.0704 N.am     299 DT      0.0000
   1826 C2         0.6881     2.0184   957.1772 C.2      299 DT      0.0000
   1827 O2         1.4587     1.0835   957.3669 O.2      299 DT      0.0000
   1828 N3        -0.6620     1.8414   957.0570 N.am     299 DT      0.0000
   1829 C4        -1.5095     2.8860   956.8394 C.2      299 DT      0.0000
   1830 O4        -2.7536     2.6222   956.7419 O.2      299 DT      0.0000
   1831 C5        -0.9864     4.2064   956.7331 C.2      299 DT      0.0000
   1832 C7        -1.9123     5.3664   956.5041 C.3      299 DT      0.0000
   1833 C6         0.3330     4.3734   956.8548 C.2      299 DT      0.0000
   1834 H5'        4.0811     6.9129   959.0445 H        299 DT      0.0000
   1835 H5''       3.6533     5.9002   960.4468 H        299 DT      0.0000
   1836 H4'        4.8257     4.4132   959.1091 H        299 DT      0.0000
   1837 H3'        4.4749     6.1651   957.0425 H        299 DT      0.0000
   1838 H2'        2.2478     5.5180   956.5352 H        299 DT      0.0000
   1839 H2''       3.1979     4.5022   955.3972 H        299 DT      0.0000
   1840 H1'        3.1707     2.6125   956.8711 H        299 DT      0.0000
   1841 H3        -1.0426     0.9088   957.1317 H        299 DT      0.0000
   1842 H6         0.7471     5.3681   956.7807 H        299 DT      0.0000
   1843 H71       -2.9383     5.0050   956.4354 H        299 DT      0.0000
   1844 H72       -1.8289     6.0670   957.3350 H        299 DT      0.0000
   1845 H73       -1.6414     5.8698   955.5760 H        299 DT      0.0000
   1846 P          6.4082     5.4224   955.8930 P.3      298 DG      0.0000
   1847 OP1        7.4956     5.9614   956.7642 O.co2    298 DG      0.0000
   1848 OP2        5.3844     6.4177   955.4874 O.co2    298 DG      0.0000
   1849 O5'        7.0856     4.4593   954.8122 O.3      298 DG      0.0000
   1850 C5'        8.1543     3.5753   955.2356 C.3      298 DG      0.0000
   1851 C4'        7.7122     2.1877   954.7879 C.3      298 DG      0.0000
   1852 O4'        6.3352     2.0175   955.0586 O.3      298 DG      0.0000
   1853 C3'        7.9249     1.9078   953.3002 C.3      298 DG      0.0000
   1854 O3'        8.7149     0.7508   953.0917 O.3      298 DG      0.0000
   1855 C2'        6.5213     1.8540   952.7235 C.3      298 DG      0.0000
   1856 C1'        5.6894     1.4268   953.9096 C.3      298 DG      0.0000
   1857 N9         4.3127     1.9133   953.7860 N.ar     298 DG      0.0000
   1858 C8         3.8786     3.1989   953.6272 C.ar     298 DG      0.0000
   1859 N7         2.5748     3.3097   953.5491 N.ar     298 DG      0.0000
   1860 C5         2.1156     2.0030   953.6866 C.ar     298 DG      0.0000
   1861 C6         0.8056     1.4555   953.6961 C.2      298 DG      0.0000
   1862 O6        -0.2534     2.0670   953.5970 O.2      298 DG      0.0000
   1863 N1         0.7578     0.0986   953.8451 N.am     298 DG      0.0000
   1864 C2         1.8943    -0.6619   953.9780 C.2      298 DG      0.0000
   1865 N2         1.7040    -1.9746   954.1136 N.pl3    298 DG      0.0000
   1866 N3         3.1529    -0.2113   953.9822 N.2      298 DG      0.0000
   1867 C4         3.1844     1.1348   953.8315 C.ar     298 DG      0.0000
   1868 H5'        9.0936     3.8518   954.7569 H        298 DG      0.0000
   1869 H5''       8.2608     3.6052   956.3200 H        298 DG      0.0000
   1870 H4'        8.2699     1.4470   955.3609 H        298 DG      0.0000
   1871 H3'        8.4433     2.7604   952.8616 H        298 DG      0.0000
   1872 H2'        6.2096     2.8321   952.3571 H        298 DG      0.0000
   1873 H2''       6.4629     1.1111   951.9279 H        298 DG      0.0000
   1874 H1'        5.6945     0.3403   953.9966 H        298 DG      0.0000
   1875 H8         4.5473     4.0451   953.5711 H        298 DG      0.0000
   1876 H1        -0.1418    -0.3604   953.8579 H        298 DG      0.0000
   1877 H21        0.7671    -2.3517   954.1146 H        298 DG      0.0000
   1878 H22        2.4969    -2.5919   954.2154 H        298 DG      0.0000
   1879 P          8.5684    -0.5627   952.2254 P.3      297 DA      0.0000
   1880 OP1        9.0970    -1.7722   953.0067 O.co2    297 DA      0.0000
   1881 OP2        9.3853    -0.3273   951.0327 O.co2    297 DA      0.0000
   1882 O5'        6.9686    -0.8163   952.0506 O.3      297 DA      0.0000
   1883 C5'        6.4034    -1.5405   953.2070 C.3      297 DA      0.0000
   1884 C4'        5.8817    -2.8540   952.6792 C.3      297 DA      0.0000
   1885 O4'        4.4945    -2.8312   952.4569 O.3      297 DA      0.0000
   1886 C3'        6.5020    -3.2460   951.3387 C.3      297 DA      0.0000
   1887 O3'        6.8038    -4.6188   951.2635 O.3      297 DA      0.0000
   1888 C2'        5.5022    -2.6874   950.3421 C.3      297 DA      0.0000
   1889 C1'        4.1883    -2.5903   951.0660 C.3      297 DA      0.0000
   1890 N9         3.5382    -1.2880   950.8405 N.ar     297 DA      0.0000
   1891 C8         4.1175    -0.0514   950.6541 C.ar     297 DA      0.0000
   1892 N7         3.2605     0.9240   950.4582 N.ar     297 DA      0.0000
   1893 C5         2.0288     0.2874   950.5451 C.ar     297 DA      0.0000
   1894 C6         0.7089     0.7848   950.4394 C.ar     297 DA      0.0000
   1895 N6         0.4167     2.0558   950.2270 N.pl3    297 DA      0.0000
   1896 N1        -0.2887    -0.1338   950.5632 N.ar     297 DA      0.0000
   1897 C2        -0.0164    -1.4532   950.7877 C.ar     297 DA      0.0000
   1898 N3         1.1992    -1.9838   950.9036 N.ar     297 DA      0.0000
   1899 C4         2.1823    -1.0613   950.7674 C.ar     297 DA      0.0000
   1900 H5'        7.1765    -1.7162   953.9551 H        297 DA      0.0000
   1901 H5''       5.5874    -0.9648   953.6437 H        297 DA      0.0000
   1902 H4'        6.1045    -3.6344   953.4069 H        297 DA      0.0000
   1903 H3'        7.4335    -2.6914   951.2256 H        297 DA      0.0000
   1904 H2'        5.4116    -3.3549   949.4853 H        297 DA      0.0000
   1905 H2''       5.8191    -1.6983   950.0116 H        297 DA      0.0000
   1906 H1'        3.5288    -3.3806   950.7078 H        297 DA      0.0000
   1907 H8         5.1864     0.1024   950.6680 H        297 DA      0.0000
   1908 H2        -0.8587    -2.1229   950.8789 H        297 DA      0.0000
   1909 H61       -0.4578     2.4507   950.5424 H        297 DA      0.0000
   1910 H62        1.0795     2.6427   949.7407 H        297 DA      0.0000
   1911 P          6.6696    -5.6559   950.0789 P.3      296 DA      0.0000
   1912 OP1        6.8840    -7.1074   950.5988 O.co2    296 DA      0.0000
   1913 OP2        7.7845    -5.3043   949.1452 O.co2    296 DA      0.0000
   1914 O5'        5.1773    -5.6058   949.5762 O.3      296 DA      0.0000
   1915 C5'        4.2298    -6.5935   950.0321 C.3      296 DA      0.0000
   1916 C4'        2.9204    -6.3064   949.3301 C.3      296 DA      0.0000
   1917 O4'        2.6183    -4.9455   949.2094 O.3      296 DA      0.0000
   1918 C3'        2.8416    -6.8959   947.9226 C.3      296 DA      0.0000
   1919 O3'        1.8384    -7.9286   947.8912 O.3      296 DA      0.0000
   1920 C2'        2.6546    -5.6728   947.0231 C.3      296 DA      0.0000
   1921 C1'        1.9683    -4.6885   947.9208 C.3      296 DA      0.0000
   1922 N9         2.1804    -3.2762   947.6213 N.ar     296 DA      0.0000
   1923 C8         3.3629    -2.5929   947.4265 C.ar     296 DA      0.0000
   1924 N7         3.2032    -1.3046   947.2211 N.ar     296 DA      0.0000
   1925 C5         1.8367    -1.1173   947.2956 C.ar     296 DA      0.0000
   1926 C6         1.0341     0.0378   947.1621 C.ar     296 DA      0.0000
   1927 N6         1.5184     1.2519   946.9189 N.pl3    296 DA      0.0000
   1928 N1        -0.3141    -0.1673   947.3110 N.ar     296 DA      0.0000
   1929 C2        -0.8330    -1.3843   947.5635 C.ar     296 DA      0.0000
   1930 N3        -0.1382    -2.5175   947.7023 N.ar     296 DA      0.0000
   1931 C4         1.1897    -2.3122   947.5551 C.ar     296 DA      0.0000
   1932 H5'        4.5798    -7.5937   949.7769 H        296 DA      0.0000
   1933 H5''       4.0980    -6.5107   951.1109 H        296 DA      0.0000
   1934 H4'        2.1270    -6.7650   949.9203 H        296 DA      0.0000
   1935 H3'        3.8049    -7.3485   947.6876 H        296 DA      0.0000
   1936 H2'        3.6159    -5.2873   946.6832 H        296 DA      0.0000
   1937 H2''       2.0201    -5.9192   946.1717 H        296 DA      0.0000
   1938 H1'        0.9024    -4.9084   947.9819 H        296 DA      0.0000
   1939 H8         4.3305    -3.0724   947.4415 H        296 DA      0.0000
   1940 H2        -1.9064    -1.4503   947.6625 H        296 DA      0.0000
   1941 H61        0.9297     2.0182   947.2129 H        296 DA      0.0000
   1942 H62        2.4121     1.3978   946.4717 H        296 DA      0.0000
   1943 P          1.5554    -8.6992   946.5062 P.3      295 DT      0.0000
   1944 OP1        0.7536    -9.9629   946.5643 O.co2    295 DT      0.0000
   1945 OP2        2.9517    -8.8492   945.9936 O.co2    295 DT      0.0000
   1946 O5'        0.5706    -7.5532   945.8031 O.3      295 DT      0.0000
   1947 C5'       -0.3415    -7.0297   946.8154 C.3      295 DT      0.0000
   1948 C4'       -1.5370    -6.4463   946.1324 C.3      295 DT      0.0000
   1949 O4'       -1.4576    -5.0640   945.9520 O.3      295 DT      0.0000
   1950 C3'       -1.8351    -7.0556   944.7712 C.3      295 DT      0.0000
   1951 O3'       -3.2374    -7.1787   944.5039 O.3      295 DT      0.0000
   1952 C2'       -1.0858    -6.0584   943.8778 C.3      295 DT      0.0000
   1953 C1'       -1.4540    -4.7369   944.5179 C.3      295 DT      0.0000
   1954 N1        -0.4090    -3.7215   944.2879 N.am     295 DT      0.0000
   1955 C2        -0.8140    -2.4039   944.1663 C.2      295 DT      0.0000
   1956 O2        -2.0069    -2.0982   944.2031 O.2      295 DT      0.0000
   1957 N3         0.1513    -1.4484   943.9989 N.am     295 DT      0.0000
   1958 C4         1.4736    -1.7626   943.9503 C.2      295 DT      0.0000
   1959 O4         2.2963    -0.8168   943.7648 O.2      295 DT      0.0000
   1960 C5         1.8702    -3.1212   944.0987 C.2      295 DT      0.0000
   1961 C7         3.3292    -3.5074   944.0466 C.3      295 DT      0.0000
   1962 C6         0.9159    -4.0417   944.2717 C.2      295 DT      0.0000
   1963 H5'       -0.6556    -7.8367   947.4775 H        295 DT      0.0000
   1964 H5''       0.1616    -6.2561   947.3954 H        295 DT      0.0000
   1965 H4'       -2.3999    -6.6403   946.7695 H        295 DT      0.0000
   1966 H3'       -1.3630    -8.0354   944.6992 H        295 DT      0.0000
   1967 H2'       -0.0096    -6.2284   943.9084 H        295 DT      0.0000
   1968 H2''      -1.4545    -6.1063   942.8532 H        295 DT      0.0000
   1969 H1'       -2.4314    -4.3886   944.1839 H        295 DT      0.0000
   1970 H3        -0.1265    -0.4815   943.9087 H        295 DT      0.0000
   1971 H6         1.2046    -5.0741   944.4031 H        295 DT      0.0000
   1972 H71        3.5803    -3.8460   943.0414 H        295 DT      0.0000
   1973 H72        3.5176    -4.3114   944.7582 H        295 DT      0.0000
   1974 H73        3.9430    -2.6440   944.3032 H        295 DT      0.0000
   1975 P         -3.6278    -7.7284   943.0140 P.3      294 DT      0.0000
   1976 OP1       -4.2915    -9.0989   943.1620 O.co2    294 DT      0.0000
   1977 OP2       -2.2926    -7.8832   942.3442 O.co2    294 DT      0.0000
   1978 O5'       -4.5724    -6.6867   942.3619 O.3      294 DT      0.0000
   1979 C5'       -5.4589    -5.8575   943.1133 C.3      294 DT      0.0000
   1980 C4'       -5.6501    -4.5771   942.3653 C.3      294 DT      0.0000
   1981 O4'       -4.5821    -3.6705   942.3084 O.3      294 DT      0.0000
   1982 C3'       -6.1252    -4.6727   940.8993 C.3      294 DT      0.0000
   1983 O3'       -6.9551    -3.5118   940.7955 O.3      294 DT      0.0000
   1984 C2'       -4.8047    -4.5071   940.1355 C.3      294 DT      0.0000
   1985 C1'       -4.2894    -3.3122   940.9113 C.3      294 DT      0.0000
   1986 N1        -2.8508    -3.0526   940.8051 N.am     294 DT      0.0000
   1987 C2        -2.4828    -1.7005   940.8045 C.2      294 DT      0.0000
   1988 O2        -3.3337    -0.8095   940.8475 O.2      294 DT      0.0000
   1989 N3        -1.1476    -1.4203   940.7510 N.am     294 DT      0.0000
   1990 C4        -0.1918    -2.3905   940.6913 C.2      294 DT      0.0000
   1991 O4         1.0215    -2.0281   940.6289 O.2      294 DT      0.0000
   1992 C5        -0.5929    -3.7543   940.6995 C.2      294 DT      0.0000
   1993 C7         0.4584    -4.8426   940.6381 C.3      294 DT      0.0000
   1994 C6        -1.9000    -4.0237   940.7660 C.2      294 DT      0.0000
   1995 H5'       -6.4186    -6.3597   943.2355 H        294 DT      0.0000
   1996 H5''      -5.0262    -5.6498   944.0919 H        294 DT      0.0000
   1997 H4'       -6.4463    -4.0516   942.8926 H        294 DT      0.0000
   1998 H3'       -6.6465    -5.6022   940.6706 H        294 DT      0.0000
   1999 H2'       -4.9591    -4.2834   939.0800 H        294 DT      0.0000
   2000 H2''      -4.1583    -5.3748   940.2671 H        294 DT      0.0000
   2001 H1'       -4.8490    -2.4193   940.6322 H        294 DT      0.0000
   2002 H3        -0.8558    -0.4535   940.7559 H        294 DT      0.0000
   2003 H6        -2.2145    -5.0566   940.7897 H        294 DT      0.0000
   2004 H71        1.4486    -4.3896   940.5893 H        294 DT      0.0000
   2005 H72        0.2954    -5.4554   939.7515 H        294 DT      0.0000
   2006 H73        0.3879    -5.4666   941.5290 H        294 DT      0.0000
   2007 P         -7.9469    -3.1758   939.6493 P.3      293 DC      0.0000
   2008 OP1       -9.2910    -2.7725   940.2584 O.co2    293 DC      0.0000
   2009 OP2       -8.1089    -4.4415   938.8675 O.co2    293 DC      0.0000
   2010 O5'       -7.1688    -1.9502   938.9099 O.3      293 DC      0.0000
   2011 C5'       -7.1932    -0.6767   939.6344 C.3      293 DC      0.0000
   2012 C4'       -7.2363     0.4024   938.5839 C.3      293 DC      0.0000
   2013 O4'       -5.9659     0.9594   938.3386 O.3      293 DC      0.0000
   2014 C3'       -7.7705    -0.0365   937.2195 C.3      293 DC      0.0000
   2015 O3'       -8.4942     0.9715   936.5102 O.3      293 DC      0.0000
   2016 C2'       -6.4704    -0.4780   936.5333 C.3      293 DC      0.0000
   2017 C1'       -5.4538     0.5224   937.0799 C.3      293 DC      0.0000
   2018 N1        -4.1493    -0.1707   937.1977 N.am     293 DC      0.0000
   2019 C2        -3.0068     0.6281   937.2150 C.2      293 DC      0.0000
   2020 O2        -3.0871     1.8622   937.1463 O.2      293 DC      0.0000
   2021 N3        -1.7993    -0.0081   937.3182 N.2      293 DC      0.0000
   2022 C4        -1.6995    -1.3613   937.3889 C.2      293 DC      0.0000
   2023 N4        -0.4987    -1.9354   937.4909 N.pl3    293 DC      0.0000
   2024 C5        -2.8814    -2.1532   937.3638 C.2      293 DC      0.0000
   2025 C6        -4.0671    -1.5274   937.2702 C.2      293 DC      0.0000
   2026 H5'       -8.0766    -0.6206   940.2704 H        293 DC      0.0000
   2027 H5''      -6.2916    -0.5737   940.2383 H        293 DC      0.0000
   2028 H4'       -7.8824     1.1990   938.9526 H        293 DC      0.0000
   2029 H3'       -8.4135    -0.9063   937.3536 H        293 DC      0.0000
   2030 H2'       -6.5523    -0.4040   935.4490 H        293 DC      0.0000
   2031 H2''      -6.2064    -1.4933   936.8293 H        293 DC      0.0000
   2032 H1'       -5.3643     1.3701   936.4005 H        293 DC      0.0000
   2033 H5        -2.8270    -3.2304   937.4186 H        293 DC      0.0000
   2034 H6        -4.9741    -2.1135   937.2521 H        293 DC      0.0000
   2035 H41        0.3340    -1.3641   937.5116 H        293 DC      0.0000
   2036 H42       -0.4229    -2.9409   937.5473 H        293 DC      0.0000
   2037 P         -8.4764     1.2046   934.8782 P.3      292 DA      0.0000
   2038 OP1       -9.7445     1.9332   934.4887 O.co2    292 DA      0.0000
   2039 OP2       -8.3418    -0.1635   934.3081 O.co2    292 DA      0.0000
   2040 O5'       -7.2514     2.2149   934.7126 O.3      292 DA      0.0000
   2041 C5'       -7.4361     3.6081   935.1781 C.3      292 DA      0.0000
   2042 C4'       -6.4505     4.3610   934.3008 C.3      292 DA      0.0000
   2043 O4'       -5.1181     3.9053   934.5681 O.3      292 DA      0.0000
   2044 C3'       -6.6529     4.1069   932.7964 C.3      292 DA      0.0000
   2045 O3'       -5.9930     5.0839   932.0073 O.3      292 DA      0.0000
   2046 C2'       -5.8365     2.8149   932.6089 C.3      292 DA      0.0000
   2047 C1'       -4.5843     3.3394   933.3636 C.3      292 DA      0.0000
   2048 N9        -3.7279     2.1667   933.5090 N.ar     292 DA      0.0000
   2049 C8        -4.1412     0.8552   933.5819 C.ar     292 DA      0.0000
   2050 N7        -3.1524     0.0045   933.6965 N.ar     292 DA      0.0000
   2051 C5        -2.0098     0.8245   933.6901 C.ar     292 DA      0.0000
   2052 C6        -0.6291     0.4996   933.7901 C.ar     292 DA      0.0000
   2053 N6        -0.1660    -0.7477   933.9129 N.pl3    292 DA      0.0000
   2054 N1         0.2062     1.5753   933.7549 N.ar     292 DA      0.0000
   2055 C2        -0.2632     2.8414   933.6360 C.ar     292 DA      0.0000
   2056 N3        -1.5422     3.2171   933.5445 N.ar     292 DA      0.0000
   2057 C4        -2.3566     2.1477   933.5721 C.ar     292 DA      0.0000
   2058 H5'       -8.4575     3.9501   935.0113 H        292 DA      0.0000
   2059 H5''      -7.1653     3.7019   936.2297 H        292 DA      0.0000
   2060 H4'       -6.5203     5.4295   934.5048 H        292 DA      0.0000
   2061 H3'       -7.7020     3.9856   932.5268 H        292 DA      0.0000
   2062 H2'       -6.2923     1.9498   933.0906 H        292 DA      0.0000
   2063 H2''      -5.6218     2.6235   931.5576 H        292 DA      0.0000
   2064 H1'       -4.0805     4.1062   932.7752 H        292 DA      0.0000
   2065 H8        -5.1788     0.5576   933.5478 H        292 DA      0.0000
   2066 H2         0.4745     3.6298   933.6128 H        292 DA      0.0000
   2067 H61       -0.8101    -1.5253   933.9376 H        292 DA      0.0000
   2068 H62        0.8280    -0.9129   933.9810 H        292 DA      0.0000
   2069 P         -6.7716     5.8673   930.8664 P.3      291 DC      0.0000
   2070 OP1       -7.4481     6.9822   931.6467 O.co2    291 DC      0.0000
   2071 OP2       -7.7202     5.0149   930.1408 O.co2    291 DC      0.0000
   2072 O5'       -5.5215     6.3023   929.8905 O.3      291 DC      0.0000
   2073 C5'       -4.4012     6.9980   930.5596 C.3      291 DC      0.0000
   2074 C4'       -3.1128     6.5585   929.9155 C.3      291 DC      0.0000
   2075 O4'       -2.5052     5.4414   930.5527 O.3      291 DC      0.0000
   2076 C3'       -3.2852     6.1678   928.4377 C.3      291 DC      0.0000
   2077 O3'       -2.1556     6.4647   927.6264 O.3      291 DC      0.0000
   2078 C2'       -3.4017     4.6171   928.6034 C.3      291 DC      0.0000
   2079 C1'       -2.1108     4.5378   929.4989 C.3      291 DC      0.0000
   2080 N1        -1.8490     3.1424   929.7368 N.am     291 DC      0.0000
   2081 C2        -0.5564     2.7577   930.0540 C.2      291 DC      0.0000
   2082 O2         0.4606     3.4462   930.1945 O.2      291 DC      0.0000
   2083 N3        -0.3136     1.4267   930.2522 N.2      291 DC      0.0000
   2084 C4        -1.2991     0.4854   930.1362 C.2      291 DC      0.0000
   2085 N4        -1.0157    -0.8087   930.3523 N.pl3    291 DC      0.0000
   2086 C5        -2.6205     0.8954   929.8066 C.2      291 DC      0.0000
   2087 C6        -2.8330     2.2025   929.6149 C.2      291 DC      0.0000
   2088 H5'       -4.5188     8.0759   930.4481 H        291 DC      0.0000
   2089 H5''      -4.3887     6.7385   931.6182 H        291 DC      0.0000
   2090 H4'       -2.4129     7.3927   929.9623 H        291 DC      0.0000
   2091 H3'       -4.1976     6.5921   928.0187 H        291 DC      0.0000
   2092 H2'       -4.3084     4.3030   929.1205 H        291 DC      0.0000
   2093 H2''      -3.2721     4.0954   927.6551 H        291 DC      0.0000
   2094 H1'       -1.2716     4.9702   928.9540 H        291 DC      0.0000
   2095 H5        -3.4227     0.1782   929.7145 H        291 DC      0.0000
   2096 H6        -3.8281     2.5295   929.3516 H        291 DC      0.0000
   2097 H41       -0.0748    -1.0862   930.5928 H        291 DC      0.0000
   2098 H42       -1.7432    -1.5049   930.2744 H        291 DC      0.0000
@<TRIPOS>BOND
     1      9     31 1
     2     39     63 1
     3    101    126 1
     4    134    158 1
     5      1      2 1
     6      1      3 1
     7      1      4 1
     8      4      5 1
     9      5      6 1
    10      6      7 1
    11      6      8 1
    12      7     11 1
    13      8      9 1
    14      8     10 1
    15     10     11 1
    16     11     12 1
    17     12     13 am
    18     12     19 1
    19     13     14 2
    20     13     15 1
    21     15     16 2
    22     16     17 2
    23     16     18 2
    24     18     19 2
    25     31     32 1
    26     31     33 1
    27     31     34 1
    28     34     35 1
    29     35     36 1
    30     36     37 1
    31     36     38 1
    32     37     41 1
    33     38     39 1
    34     38     40 1
    35     40     41 1
    36     41     42 1
    37     42     43 ar
    38     42     51 ar
    39     43     44 ar
    40     44     45 ar
    41     45     46 ar
    42     45     51 ar
    43     46     47 1
    44     46     48 ar
    45     48     49 ar
    46     49     50 ar
    47     50     51 ar
    48     63     64 1
    49     63     65 1
    50     63     66 1
    51     66     67 1
    52     67     68 1
    53     68     69 1
    54     68     70 1
    55     69     73 1
    56     70     71 1
    57     70     72 1
    58     72     73 1
    59     73     74 1
    60     74     75 am
    61     74     81 1
    62     75     76 2
    63     75     77 1
    64     77     78 2
    65     78     79 2
    66     78     80 2
    67     80     81 2
    68     93     94 1
    69     93     95 1
    70     93     96 1
    71     96     97 1
    72     97     98 1
    73     98     99 1
    74     98    100 1
    75     99    103 1
    76    100    101 1
    77    100    102 1
    78    102    103 1
    79    103    104 1
    80    104    105 ar
    81    104    114 ar
    82    105    106 ar
    83    106    107 ar
    84    107    108 1
    85    107    114 ar
    86    108    109 2
    87    108    110 am
    88    110    111 1
    89    111    112 2
    90    111    113 2
    91    113    114 1
    92    126    127 1
    93    126    128 1
    94    126    129 1
    95    129    130 1
    96    130    131 1
    97    131    132 1
    98    131    133 1
    99    132    136 1
   100    133    134 1
   101    133    135 1
   102    135    136 1
   103    136    137 1
   104    137    138 am
   105    137    145 1
   106    138    139 2
   107    138    140 am
   108    140    141 am
   109    141    142 2
   110    141    143 1
   111    143    144 1
   112    143    145 2
   113    158    159 1
   114    158    160 1
   115    158    161 1
   116    161    162 1
   117    162    163 1
   118    163    164 1
   119    163    165 1
   120    164    168 1
   121    165    166 1
   122    165    167 1
   123    167    168 1
   124    168    169 1
   125    169    170 ar
   126    169    179 ar
   127    170    171 ar
   128    171    172 ar
   129    172    173 1
   130    172    179 ar
   131    173    174 2
   132    173    175 am
   133    175    176 1
   134    176    177 2
   135    176    178 2
   136    178    179 1
   137     20      5 1
   138     21      5 1
   139     22      6 1
   140     23      8 1
   141     24     10 1
   142     25     10 1
   143     26     11 1
   144     27     18 1
   145     28     19 1
   146     52     35 1
   147     53     35 1
   148     54     36 1
   149     55     38 1
   150     56     40 1
   151     57     40 1
   152     58     41 1
   153     59     43 1
   154     60     49 1
   155     82     67 1
   156     83     67 1
   157     84     68 1
   158     85     70 1
   159     86     72 1
   160     87     72 1
   161     88     73 1
   162     89     80 1
   163     90     81 1
   164    115     97 1
   165    116     97 1
   166    117     98 1
   167    118    100 1
   168    119    102 1
   169    120    102 1
   170    121    103 1
   171    122    105 1
   172    123    110 1
   173    146    130 1
   174    147    130 1
   175    148    131 1
   176    149    133 1
   177    150    135 1
   178    151    135 1
   179    152    136 1
   180    153    140 1
   181    154    145 1
   182    180    162 1
   183    181    162 1
   184    182    163 1
   185    183    165 1
   186    184    167 1
   187    185    167 1
   188    186    168 1
   189    187    170 1
   190    188    175 1
   191     29     17 1
   192     30     17 1
   193     91     79 1
   194     92     79 1
   195    124    112 1
   196    125    112 1
   197    189    177 1
   198    190    177 1
   199     61     47 1
   200     62     47 1
   201    155    144 1
   202    156    144 1
   203    157    144 1
   204     71    191 1
   205     93    805 1
   206    199    224 1
   207    232    256 1
   208    264    289 1
   209    297    321 1
   210    329    353 1
   211    361    385 1
   212    393    417 1
   213    425    447 1
   214    455    479 1
   215    517    542 1
   216    550    574 1
   217    582    607 1
   218    615    639 1
   219    647    671 1
   220    679    703 1
   221    711    735 1
   222    743    765 1
   223    773    797 1
   224    191    192 1
   225    191    193 1
   226    191    194 1
   227    194    195 1
   228    195    196 1
   229    196    197 1
   230    196    198 1
   231    197    201 1
   232    198    199 1
   233    198    200 1
   234    200    201 1
   235    201    202 1
   236    202    203 ar
   237    202    212 ar
   238    203    204 ar
   239    204    205 ar
   240    205    206 1
   241    205    212 ar
   242    206    207 2
   243    206    208 am
   244    208    209 1
   245    209    210 2
   246    209    211 2
   247    211    212 1
   248    224    225 1
   249    224    226 1
   250    224    227 1
   251    227    228 1
   252    228    229 1
   253    229    230 1
   254    229    231 1
   255    230    234 1
   256    231    232 1
   257    231    233 1
   258    233    234 1
   259    234    235 1
   260    235    236 am
   261    235    243 1
   262    236    237 2
   263    236    238 am
   264    238    239 am
   265    239    240 2
   266    239    241 1
   267    241    242 1
   268    241    243 2
   269    256    257 1
   270    256    258 1
   271    256    259 1
   272    259    260 1
   273    260    261 1
   274    261    262 1
   275    261    263 1
   276    262    266 1
   277    263    264 1
   278    263    265 1
   279    265    266 1
   280    266    267 1
   281    267    268 ar
   282    267    277 ar
   283    268    269 ar
   284    269    270 ar
   285    270    271 1
   286    270    277 ar
   287    271    272 2
   288    271    273 am
   289    273    274 1
   290    274    275 2
   291    274    276 2
   292    276    277 1
   293    289    290 1
   294    289    291 1
   295    289    292 1
   296    292    293 1
   297    293    294 1
   298    294    295 1
   299    294    296 1
   300    295    299 1
   301    296    297 1
   302    296    298 1
   303    298    299 1
   304    299    300 1
   305    300    301 ar
   306    300    309 ar
   307    301    302 ar
   308    302    303 ar
   309    303    304 ar
   310    303    309 ar
   311    304    305 1
   312    304    306 ar
   313    306    307 ar
   314    307    308 ar
   315    308    309 ar
   316    321    322 1
   317    321    323 1
   318    321    324 1
   319    324    325 1
   320    325    326 1
   321    326    327 1
   322    326    328 1
   323    327    331 1
   324    328    329 1
   325    328    330 1
   326    330    331 1
   327    331    332 1
   328    332    333 ar
   329    332    341 ar
   330    333    334 ar
   331    334    335 ar
   332    335    336 ar
   333    335    341 ar
   334    336    337 1
   335    336    338 ar
   336    338    339 ar
   337    339    340 ar
   338    340    341 ar
   339    353    354 1
   340    353    355 1
   341    353    356 1
   342    356    357 1
   343    357    358 1
   344    358    359 1
   345    358    360 1
   346    359    363 1
   347    360    361 1
   348    360    362 1
   349    362    363 1
   350    363    364 1
   351    364    365 am
   352    364    372 1
   353    365    366 2
   354    365    367 am
   355    367    368 am
   356    368    369 2
   357    368    370 1
   358    370    371 1
   359    370    372 2
   360    385    386 1
   361    385    387 1
   362    385    388 1
   363    388    389 1
   364    389    390 1
   365    390    391 1
   366    390    392 1
   367    391    395 1
   368    392    393 1
   369    392    394 1
   370    394    395 1
   371    395    396 1
   372    396    397 am
   373    396    404 1
   374    397    398 2
   375    397    399 am
   376    399    400 am
   377    400    401 2
   378    400    402 1
   379    402    403 1
   380    402    404 2
   381    417    418 1
   382    417    419 1
   383    417    420 1
   384    420    421 1
   385    421    422 1
   386    422    423 1
   387    422    424 1
   388    423    427 1
   389    424    425 1
   390    424    426 1
   391    426    427 1
   392    427    428 1
   393    428    429 am
   394    428    435 1
   395    429    430 2
   396    429    431 1
   397    431    432 2
   398    432    433 2
   399    432    434 2
   400    434    435 2
   401    447    448 1
   402    447    449 1
   403    447    450 1
   404    450    451 1
   405    451    452 1
   406    452    453 1
   407    452    454 1
   408    453    457 1
   409    454    455 1
   410    454    456 1
   411    456    457 1
   412    457    458 1
   413    458    459 ar
   414    458    467 ar
   415    459    460 ar
   416    460    461 ar
   417    461    462 ar
   418    461    467 ar
   419    462    463 1
   420    462    464 ar
   421    464    465 ar
   422    465    466 ar
   423    466    467 ar
   424    479    480 1
   425    479    481 1
   426    479    482 1
   427    482    483 1
   428    483    484 1
   429    484    485 1
   430    484    486 1
   431    485    489 1
   432    486    487 1
   433    486    488 1
   434    488    489 1
   435    489    490 1
   436    490    491 am
   437    490    497 1
   438    491    492 2
   439    491    493 1
   440    493    494 2
   441    494    495 2
   442    494    496 2
   443    496    497 2
   444    509    510 1
   445    509    511 1
   446    509    512 1
   447    512    513 1
   448    513    514 1
   449    514    515 1
   450    514    516 1
   451    515    519 1
   452    516    517 1
   453    516    518 1
   454    518    519 1
   455    519    520 1
   456    520    521 ar
   457    520    530 ar
   458    521    522 ar
   459    522    523 ar
   460    523    524 1
   461    523    530 ar
   462    524    525 2
   463    524    526 am
   464    526    527 1
   465    527    528 2
   466    527    529 2
   467    529    530 1
   468    542    543 1
   469    542    544 1
   470    542    545 1
   471    545    546 1
   472    546    547 1
   473    547    548 1
   474    547    549 1
   475    548    552 1
   476    549    550 1
   477    549    551 1
   478    551    552 1
   479    552    553 1
   480    553    554 am
   481    553    561 1
   482    554    555 2
   483    554    556 am
   484    556    557 am
   485    557    558 2
   486    557    559 1
   487    559    560 1
   488    559    561 2
   489    574    575 1
   490    574    576 1
   491    574    577 1
   492    577    578 1
   493    578    579 1
   494    579    580 1
   495    579    581 1
   496    580    584 1
   497    581    582 1
   498    581    583 1
   499    583    584 1
   500    584    585 1
   501    585    586 ar
   502    585    595 ar
   503    586    587 ar
   504    587    588 ar
   505    588    589 1
   506    588    595 ar
   507    589    590 2
   508    589    591 am
   509    591    592 1
   510    592    593 2
   511    592    594 2
   512    594    595 1
   513    607    608 1
   514    607    609 1
   515    607    610 1
   516    610    611 1
   517    611    612 1
   518    612    613 1
   519    612    614 1
   520    613    617 1
   521    614    615 1
   522    614    616 1
   523    616    617 1
   524    617    618 1
   525    618    619 ar
   526    618    627 ar
   527    619    620 ar
   528    620    621 ar
   529    621    622 ar
   530    621    627 ar
   531    622    623 1
   532    622    624 ar
   533    624    625 ar
   534    625    626 ar
   535    626    627 ar
   536    639    640 1
   537    639    641 1
   538    639    642 1
   539    642    643 1
   540    643    644 1
   541    644    645 1
   542    644    646 1
   543    645    649 1
   544    646    647 1
   545    646    648 1
   546    648    649 1
   547    649    650 1
   548    650    651 ar
   549    650    659 ar
   550    651    652 ar
   551    652    653 ar
   552    653    654 ar
   553    653    659 ar
   554    654    655 1
   555    654    656 ar
   556    656    657 ar
   557    657    658 ar
   558    658    659 ar
   559    671    672 1
   560    671    673 1
   561    671    674 1
   562    674    675 1
   563    675    676 1
   564    676    677 1
   565    676    678 1
   566    677    681 1
   567    678    679 1
   568    678    680 1
   569    680    681 1
   570    681    682 1
   571    682    683 am
   572    682    690 1
   573    683    684 2
   574    683    685 am
   575    685    686 am
   576    686    687 2
   577    686    688 1
   578    688    689 1
   579    688    690 2
   580    703    704 1
   581    703    705 1
   582    703    706 1
   583    706    707 1
   584    707    708 1
   585    708    709 1
   586    708    710 1
   587    709    713 1
   588    710    711 1
   589    710    712 1
   590    712    713 1
   591    713    714 1
   592    714    715 am
   593    714    722 1
   594    715    716 2
   595    715    717 am
   596    717    718 am
   597    718    719 2
   598    718    720 1
   599    720    721 1
   600    720    722 2
   601    735    736 1
   602    735    737 1
   603    735    738 1
   604    738    739 1
   605    739    740 1
   606    740    741 1
   607    740    742 1
   608    741    745 1
   609    742    743 1
   610    742    744 1
   611    744    745 1
   612    745    746 1
   613    746    747 am
   614    746    753 1
   615    747    748 2
   616    747    749 1
   617    749    750 2
   618    750    751 2
   619    750    752 2
   620    752    753 2
   621    765    766 1
   622    765    767 1
   623    765    768 1
   624    768    769 1
   625    769    770 1
   626    770    771 1
   627    770    772 1
   628    771    775 1
   629    772    773 1
   630    772    774 1
   631    774    775 1
   632    775    776 1
   633    776    777 ar
   634    776    785 ar
   635    777    778 ar
   636    778    779 ar
   637    779    780 ar
   638    779    785 ar
   639    780    781 1
   640    780    782 ar
   641    782    783 ar
   642    783    784 ar
   643    784    785 ar
   644    797    798 1
   645    797    799 1
   646    797    800 1
   647    800    801 1
   648    801    802 1
   649    802    803 1
   650    802    804 1
   651    803    807 1
   652    804    805 1
   653    804    806 1
   654    806    807 1
   655    807    808 1
   656    808    809 am
   657    808    815 1
   658    809    810 2
   659    809    811 1
   660    811    812 2
   661    812    813 2
   662    812    814 2
   663    814    815 2
   664    213    195 1
   665    214    195 1
   666    215    196 1
   667    216    198 1
   668    217    200 1
   669    218    200 1
   670    219    201 1
   671    220    203 1
   672    221    208 1
   673    244    228 1
   674    245    228 1
   675    246    229 1
   676    247    231 1
   677    248    233 1
   678    249    233 1
   679    250    234 1
   680    251    238 1
   681    252    243 1
   682    278    260 1
   683    279    260 1
   684    280    261 1
   685    281    263 1
   686    282    265 1
   687    283    265 1
   688    284    266 1
   689    285    268 1
   690    286    273 1
   691    310    293 1
   692    311    293 1
   693    312    294 1
   694    313    296 1
   695    314    298 1
   696    315    298 1
   697    316    299 1
   698    317    301 1
   699    318    307 1
   700    342    325 1
   701    343    325 1
   702    344    326 1
   703    345    328 1
   704    346    330 1
   705    347    330 1
   706    348    331 1
   707    349    333 1
   708    350    339 1
   709    373    357 1
   710    374    357 1
   711    375    358 1
   712    376    360 1
   713    377    362 1
   714    378    362 1
   715    379    363 1
   716    380    367 1
   717    381    372 1
   718    405    389 1
   719    406    389 1
   720    407    390 1
   721    408    392 1
   722    409    394 1
   723    410    394 1
   724    411    395 1
   725    412    399 1
   726    413    404 1
   727    436    421 1
   728    437    421 1
   729    438    422 1
   730    439    424 1
   731    440    426 1
   732    441    426 1
   733    442    427 1
   734    443    434 1
   735    444    435 1
   736    468    451 1
   737    469    451 1
   738    470    452 1
   739    471    454 1
   740    472    456 1
   741    473    456 1
   742    474    457 1
   743    475    459 1
   744    476    465 1
   745    498    483 1
   746    499    483 1
   747    500    484 1
   748    501    486 1
   749    502    488 1
   750    503    488 1
   751    504    489 1
   752    505    496 1
   753    506    497 1
   754    531    513 1
   755    532    513 1
   756    533    514 1
   757    534    516 1
   758    535    518 1
   759    536    518 1
   760    537    519 1
   761    538    521 1
   762    539    526 1
   763    562    546 1
   764    563    546 1
   765    564    547 1
   766    565    549 1
   767    566    551 1
   768    567    551 1
   769    568    552 1
   770    569    556 1
   771    570    561 1
   772    596    578 1
   773    597    578 1
   774    598    579 1
   775    599    581 1
   776    600    583 1
   777    601    583 1
   778    602    584 1
   779    603    586 1
   780    604    591 1
   781    628    611 1
   782    629    611 1
   783    630    612 1
   784    631    614 1
   785    632    616 1
   786    633    616 1
   787    634    617 1
   788    635    619 1
   789    636    625 1
   790    660    643 1
   791    661    643 1
   792    662    644 1
   793    663    646 1
   794    664    648 1
   795    665    648 1
   796    666    649 1
   797    667    651 1
   798    668    657 1
   799    691    675 1
   800    692    675 1
   801    693    676 1
   802    694    678 1
   803    695    680 1
   804    696    680 1
   805    697    681 1
   806    698    685 1
   807    699    690 1
   808    723    707 1
   809    724    707 1
   810    725    708 1
   811    726    710 1
   812    727    712 1
   813    728    712 1
   814    729    713 1
   815    730    717 1
   816    731    722 1
   817    754    739 1
   818    755    739 1
   819    756    740 1
   820    757    742 1
   821    758    744 1
   822    759    744 1
   823    760    745 1
   824    761    752 1
   825    762    753 1
   826    786    769 1
   827    787    769 1
   828    788    770 1
   829    789    772 1
   830    790    774 1
   831    791    774 1
   832    792    775 1
   833    793    777 1
   834    794    783 1
   835    816    801 1
   836    817    801 1
   837    818    802 1
   838    819    804 1
   839    820    806 1
   840    821    806 1
   841    822    807 1
   842    823    814 1
   843    824    815 1
   844    222    210 1
   845    223    210 1
   846    287    275 1
   847    288    275 1
   848    445    433 1
   849    446    433 1
   850    507    495 1
   851    508    495 1
   852    540    528 1
   853    541    528 1
   854    605    593 1
   855    606    593 1
   856    763    751 1
   857    764    751 1
   858    825    813 1
   859    826    813 1
   860    319    305 1
   861    320    305 1
   862    351    337 1
   863    352    337 1
   864    477    463 1
   865    478    463 1
   866    637    623 1
   867    638    623 1
   868    669    655 1
   869    670    655 1
   870    795    781 1
   871    796    781 1
   872    253    242 1
   873    254    242 1
   874    255    242 1
   875    382    371 1
   876    383    371 1
   877    384    371 1
   878    414    403 1
   879    415    403 1
   880    416    403 1
   881    571    560 1
   882    572    560 1
   883    573    560 1
   884    700    689 1
   885    701    689 1
   886    702    689 1
   887    732    721 1
   888    733    721 1
   889    734    721 1
   890    487    827 1
   891    509   1441 1
   892    835    860 1
   893    868    892 1
   894    900    925 1
   895    933    957 1
   896    965    989 1
   897    997   1021 1
   898   1029   1053 1
   899   1061   1083 1
   900   1091   1115 1
   901   1153   1178 1
   902   1186   1210 1
   903   1218   1243 1
   904   1251   1275 1
   905   1283   1307 1
   906   1315   1339 1
   907   1347   1371 1
   908   1379   1401 1
   909   1409   1433 1
   910    827    828 1
   911    827    829 1
   912    827    830 1
   913    830    831 1
   914    831    832 1
   915    832    833 1
   916    832    834 1
   917    833    837 1
   918    834    835 1
   919    834    836 1
   920    836    837 1
   921    837    838 1
   922    838    839 ar
   923    838    848 ar
   924    839    840 ar
   925    840    841 ar
   926    841    842 1
   927    841    848 ar
   928    842    843 2
   929    842    844 am
   930    844    845 1
   931    845    846 2
   932    845    847 2
   933    847    848 1
   934    860    861 1
   935    860    862 1
   936    860    863 1
   937    863    864 1
   938    864    865 1
   939    865    866 1
   940    865    867 1
   941    866    870 1
   942    867    868 1
   943    867    869 1
   944    869    870 1
   945    870    871 1
   946    871    872 am
   947    871    879 1
   948    872    873 2
   949    872    874 am
   950    874    875 am
   951    875    876 2
   952    875    877 1
   953    877    878 1
   954    877    879 2
   955    892    893 1
   956    892    894 1
   957    892    895 1
   958    895    896 1
   959    896    897 1
   960    897    898 1
   961    897    899 1
   962    898    902 1
   963    899    900 1
   964    899    901 1
   965    901    902 1
   966    902    903 1
   967    903    904 ar
   968    903    913 ar
   969    904    905 ar
   970    905    906 ar
   971    906    907 1
   972    906    913 ar
   973    907    908 2
   974    907    909 am
   975    909    910 1
   976    910    911 2
   977    910    912 2
   978    912    913 1
   979    925    926 1
   980    925    927 1
   981    925    928 1
   982    928    929 1
   983    929    930 1
   984    930    931 1
   985    930    932 1
   986    931    935 1
   987    932    933 1
   988    932    934 1
   989    934    935 1
   990    935    936 1
   991    936    937 ar
   992    936    945 ar
   993    937    938 ar
   994    938    939 ar
   995    939    940 ar
   996    939    945 ar
   997    940    941 1
   998    940    942 ar
   999    942    943 ar
  1000    943    944 ar
  1001    944    945 ar
  1002    957    958 1
  1003    957    959 1
  1004    957    960 1
  1005    960    961 1
  1006    961    962 1
  1007    962    963 1
  1008    962    964 1
  1009    963    967 1
  1010    964    965 1
  1011    964    966 1
  1012    966    967 1
  1013    967    968 1
  1014    968    969 ar
  1015    968    977 ar
  1016    969    970 ar
  1017    970    971 ar
  1018    971    972 ar
  1019    971    977 ar
  1020    972    973 1
  1021    972    974 ar
  1022    974    975 ar
  1023    975    976 ar
  1024    976    977 ar
  1025    989    990 1
  1026    989    991 1
  1027    989    992 1
  1028    992    993 1
  1029    993    994 1
  1030    994    995 1
  1031    994    996 1
  1032    995    999 1
  1033    996    997 1
  1034    996    998 1
  1035    998    999 1
  1036    999   1000 1
  1037   1000   1001 am
  1038   1000   1008 1
  1039   1001   1002 2
  1040   1001   1003 am
  1041   1003   1004 am
  1042   1004   1005 2
  1043   1004   1006 1
  1044   1006   1007 1
  1045   1006   1008 2
  1046   1021   1022 1
  1047   1021   1023 1
  1048   1021   1024 1
  1049   1024   1025 1
  1050   1025   1026 1
  1051   1026   1027 1
  1052   1026   1028 1
  1053   1027   1031 1
  1054   1028   1029 1
  1055   1028   1030 1
  1056   1030   1031 1
  1057   1031   1032 1
  1058   1032   1033 am
  1059   1032   1040 1
  1060   1033   1034 2
  1061   1033   1035 am
  1062   1035   1036 am
  1063   1036   1037 2
  1064   1036   1038 1
  1065   1038   1039 1
  1066   1038   1040 2
  1067   1053   1054 1
  1068   1053   1055 1
  1069   1053   1056 1
  1070   1056   1057 1
  1071   1057   1058 1
  1072   1058   1059 1
  1073   1058   1060 1
  1074   1059   1063 1
  1075   1060   1061 1
  1076   1060   1062 1
  1077   1062   1063 1
  1078   1063   1064 1
  1079   1064   1065 am
  1080   1064   1071 1
  1081   1065   1066 2
  1082   1065   1067 1
  1083   1067   1068 2
  1084   1068   1069 2
  1085   1068   1070 2
  1086   1070   1071 2
  1087   1083   1084 1
  1088   1083   1085 1
  1089   1083   1086 1
  1090   1086   1087 1
  1091   1087   1088 1
  1092   1088   1089 1
  1093   1088   1090 1
  1094   1089   1093 1
  1095   1090   1091 1
  1096   1090   1092 1
  1097   1092   1093 1
  1098   1093   1094 1
  1099   1094   1095 ar
  1100   1094   1103 ar
  1101   1095   1096 ar
  1102   1096   1097 ar
  1103   1097   1098 ar
  1104   1097   1103 ar
  1105   1098   1099 1
  1106   1098   1100 ar
  1107   1100   1101 ar
  1108   1101   1102 ar
  1109   1102   1103 ar
  1110   1115   1116 1
  1111   1115   1117 1
  1112   1115   1118 1
  1113   1118   1119 1
  1114   1119   1120 1
  1115   1120   1121 1
  1116   1120   1122 1
  1117   1121   1125 1
  1118   1122   1123 1
  1119   1122   1124 1
  1120   1124   1125 1
  1121   1125   1126 1
  1122   1126   1127 am
  1123   1126   1133 1
  1124   1127   1128 2
  1125   1127   1129 1
  1126   1129   1130 2
  1127   1130   1131 2
  1128   1130   1132 2
  1129   1132   1133 2
  1130   1145   1146 1
  1131   1145   1147 1
  1132   1145   1148 1
  1133   1148   1149 1
  1134   1149   1150 1
  1135   1150   1151 1
  1136   1150   1152 1
  1137   1151   1155 1
  1138   1152   1153 1
  1139   1152   1154 1
  1140   1154   1155 1
  1141   1155   1156 1
  1142   1156   1157 ar
  1143   1156   1166 ar
  1144   1157   1158 ar
  1145   1158   1159 ar
  1146   1159   1160 1
  1147   1159   1166 ar
  1148   1160   1161 2
  1149   1160   1162 am
  1150   1162   1163 1
  1151   1163   1164 2
  1152   1163   1165 2
  1153   1165   1166 1
  1154   1178   1179 1
  1155   1178   1180 1
  1156   1178   1181 1
  1157   1181   1182 1
  1158   1182   1183 1
  1159   1183   1184 1
  1160   1183   1185 1
  1161   1184   1188 1
  1162   1185   1186 1
  1163   1185   1187 1
  1164   1187   1188 1
  1165   1188   1189 1
  1166   1189   1190 am
  1167   1189   1197 1
  1168   1190   1191 2
  1169   1190   1192 am
  1170   1192   1193 am
  1171   1193   1194 2
  1172   1193   1195 1
  1173   1195   1196 1
  1174   1195   1197 2
  1175   1210   1211 1
  1176   1210   1212 1
  1177   1210   1213 1
  1178   1213   1214 1
  1179   1214   1215 1
  1180   1215   1216 1
  1181   1215   1217 1
  1182   1216   1220 1
  1183   1217   1218 1
  1184   1217   1219 1
  1185   1219   1220 1
  1186   1220   1221 1
  1187   1221   1222 ar
  1188   1221   1231 ar
  1189   1222   1223 ar
  1190   1223   1224 ar
  1191   1224   1225 1
  1192   1224   1231 ar
  1193   1225   1226 2
  1194   1225   1227 am
  1195   1227   1228 1
  1196   1228   1229 2
  1197   1228   1230 2
  1198   1230   1231 1
  1199   1243   1244 1
  1200   1243   1245 1
  1201   1243   1246 1
  1202   1246   1247 1
  1203   1247   1248 1
  1204   1248   1249 1
  1205   1248   1250 1
  1206   1249   1253 1
  1207   1250   1251 1
  1208   1250   1252 1
  1209   1252   1253 1
  1210   1253   1254 1
  1211   1254   1255 ar
  1212   1254   1263 ar
  1213   1255   1256 ar
  1214   1256   1257 ar
  1215   1257   1258 ar
  1216   1257   1263 ar
  1217   1258   1259 1
  1218   1258   1260 ar
  1219   1260   1261 ar
  1220   1261   1262 ar
  1221   1262   1263 ar
  1222   1275   1276 1
  1223   1275   1277 1
  1224   1275   1278 1
  1225   1278   1279 1
  1226   1279   1280 1
  1227   1280   1281 1
  1228   1280   1282 1
  1229   1281   1285 1
  1230   1282   1283 1
  1231   1282   1284 1
  1232   1284   1285 1
  1233   1285   1286 1
  1234   1286   1287 ar
  1235   1286   1295 ar
  1236   1287   1288 ar
  1237   1288   1289 ar
  1238   1289   1290 ar
  1239   1289   1295 ar
  1240   1290   1291 1
  1241   1290   1292 ar
  1242   1292   1293 ar
  1243   1293   1294 ar
  1244   1294   1295 ar
  1245   1307   1308 1
  1246   1307   1309 1
  1247   1307   1310 1
  1248   1310   1311 1
  1249   1311   1312 1
  1250   1312   1313 1
  1251   1312   1314 1
  1252   1313   1317 1
  1253   1314   1315 1
  1254   1314   1316 1
  1255   1316   1317 1
  1256   1317   1318 1
  1257   1318   1319 am
  1258   1318   1326 1
  1259   1319   1320 2
  1260   1319   1321 am
  1261   1321   1322 am
  1262   1322   1323 2
  1263   1322   1324 1
  1264   1324   1325 1
  1265   1324   1326 2
  1266   1339   1340 1
  1267   1339   1341 1
  1268   1339   1342 1
  1269   1342   1343 1
  1270   1343   1344 1
  1271   1344   1345 1
  1272   1344   1346 1
  1273   1345   1349 1
  1274   1346   1347 1
  1275   1346   1348 1
  1276   1348   1349 1
  1277   1349   1350 1
  1278   1350   1351 am
  1279   1350   1358 1
  1280   1351   1352 2
  1281   1351   1353 am
  1282   1353   1354 am
  1283   1354   1355 2
  1284   1354   1356 1
  1285   1356   1357 1
  1286   1356   1358 2
  1287   1371   1372 1
  1288   1371   1373 1
  1289   1371   1374 1
  1290   1374   1375 1
  1291   1375   1376 1
  1292   1376   1377 1
  1293   1376   1378 1
  1294   1377   1381 1
  1295   1378   1379 1
  1296   1378   1380 1
  1297   1380   1381 1
  1298   1381   1382 1
  1299   1382   1383 am
  1300   1382   1389 1
  1301   1383   1384 2
  1302   1383   1385 1
  1303   1385   1386 2
  1304   1386   1387 2
  1305   1386   1388 2
  1306   1388   1389 2
  1307   1401   1402 1
  1308   1401   1403 1
  1309   1401   1404 1
  1310   1404   1405 1
  1311   1405   1406 1
  1312   1406   1407 1
  1313   1406   1408 1
  1314   1407   1411 1
  1315   1408   1409 1
  1316   1408   1410 1
  1317   1410   1411 1
  1318   1411   1412 1
  1319   1412   1413 ar
  1320   1412   1421 ar
  1321   1413   1414 ar
  1322   1414   1415 ar
  1323   1415   1416 ar
  1324   1415   1421 ar
  1325   1416   1417 1
  1326   1416   1418 ar
  1327   1418   1419 ar
  1328   1419   1420 ar
  1329   1420   1421 ar
  1330   1433   1434 1
  1331   1433   1435 1
  1332   1433   1436 1
  1333   1436   1437 1
  1334   1437   1438 1
  1335   1438   1439 1
  1336   1438   1440 1
  1337   1439   1443 1
  1338   1440   1441 1
  1339   1440   1442 1
  1340   1442   1443 1
  1341   1443   1444 1
  1342   1444   1445 am
  1343   1444   1451 1
  1344   1445   1446 2
  1345   1445   1447 1
  1346   1447   1448 2
  1347   1448   1449 2
  1348   1448   1450 2
  1349   1450   1451 2
  1350    849    831 1
  1351    850    831 1
  1352    851    832 1
  1353    852    834 1
  1354    853    836 1
  1355    854    836 1
  1356    855    837 1
  1357    856    839 1
  1358    857    844 1
  1359    880    864 1
  1360    881    864 1
  1361    882    865 1
  1362    883    867 1
  1363    884    869 1
  1364    885    869 1
  1365    886    870 1
  1366    887    874 1
  1367    888    879 1
  1368    914    896 1
  1369    915    896 1
  1370    916    897 1
  1371    917    899 1
  1372    918    901 1
  1373    919    901 1
  1374    920    902 1
  1375    921    904 1
  1376    922    909 1
  1377    946    929 1
  1378    947    929 1
  1379    948    930 1
  1380    949    932 1
  1381    950    934 1
  1382    951    934 1
  1383    952    935 1
  1384    953    937 1
  1385    954    943 1
  1386    978    961 1
  1387    979    961 1
  1388    980    962 1
  1389    981    964 1
  1390    982    966 1
  1391    983    966 1
  1392    984    967 1
  1393    985    969 1
  1394    986    975 1
  1395   1009    993 1
  1396   1010    993 1
  1397   1011    994 1
  1398   1012    996 1
  1399   1013    998 1
  1400   1014    998 1
  1401   1015    999 1
  1402   1016   1003 1
  1403   1017   1008 1
  1404   1041   1025 1
  1405   1042   1025 1
  1406   1043   1026 1
  1407   1044   1028 1
  1408   1045   1030 1
  1409   1046   1030 1
  1410   1047   1031 1
  1411   1048   1035 1
  1412   1049   1040 1
  1413   1072   1057 1
  1414   1073   1057 1
  1415   1074   1058 1
  1416   1075   1060 1
  1417   1076   1062 1
  1418   1077   1062 1
  1419   1078   1063 1
  1420   1079   1070 1
  1421   1080   1071 1
  1422   1104   1087 1
  1423   1105   1087 1
  1424   1106   1088 1
  1425   1107   1090 1
  1426   1108   1092 1
  1427   1109   1092 1
  1428   1110   1093 1
  1429   1111   1095 1
  1430   1112   1101 1
  1431   1134   1119 1
  1432   1135   1119 1
  1433   1136   1120 1
  1434   1137   1122 1
  1435   1138   1124 1
  1436   1139   1124 1
  1437   1140   1125 1
  1438   1141   1132 1
  1439   1142   1133 1
  1440   1167   1149 1
  1441   1168   1149 1
  1442   1169   1150 1
  1443   1170   1152 1
  1444   1171   1154 1
  1445   1172   1154 1
  1446   1173   1155 1
  1447   1174   1157 1
  1448   1175   1162 1
  1449   1198   1182 1
  1450   1199   1182 1
  1451   1200   1183 1
  1452   1201   1185 1
  1453   1202   1187 1
  1454   1203   1187 1
  1455   1204   1188 1
  1456   1205   1192 1
  1457   1206   1197 1
  1458   1232   1214 1
  1459   1233   1214 1
  1460   1234   1215 1
  1461   1235   1217 1
  1462   1236   1219 1
  1463   1237   1219 1
  1464   1238   1220 1
  1465   1239   1222 1
  1466   1240   1227 1
  1467   1264   1247 1
  1468   1265   1247 1
  1469   1266   1248 1
  1470   1267   1250 1
  1471   1268   1252 1
  1472   1269   1252 1
  1473   1270   1253 1
  1474   1271   1255 1
  1475   1272   1261 1
  1476   1296   1279 1
  1477   1297   1279 1
  1478   1298   1280 1
  1479   1299   1282 1
  1480   1300   1284 1
  1481   1301   1284 1
  1482   1302   1285 1
  1483   1303   1287 1
  1484   1304   1293 1
  1485   1327   1311 1
  1486   1328   1311 1
  1487   1329   1312 1
  1488   1330   1314 1
  1489   1331   1316 1
  1490   1332   1316 1
  1491   1333   1317 1
  1492   1334   1321 1
  1493   1335   1326 1
  1494   1359   1343 1
  1495   1360   1343 1
  1496   1361   1344 1
  1497   1362   1346 1
  1498   1363   1348 1
  1499   1364   1348 1
  1500   1365   1349 1
  1501   1366   1353 1
  1502   1367   1358 1
  1503   1390   1375 1
  1504   1391   1375 1
  1505   1392   1376 1
  1506   1393   1378 1
  1507   1394   1380 1
  1508   1395   1380 1
  1509   1396   1381 1
  1510   1397   1388 1
  1511   1398   1389 1
  1512   1422   1405 1
  1513   1423   1405 1
  1514   1424   1406 1
  1515   1425   1408 1
  1516   1426   1410 1
  1517   1427   1410 1
  1518   1428   1411 1
  1519   1429   1413 1
  1520   1430   1419 1
  1521   1452   1437 1
  1522   1453   1437 1
  1523   1454   1438 1
  1524   1455   1440 1
  1525   1456   1442 1
  1526   1457   1442 1
  1527   1458   1443 1
  1528   1459   1450 1
  1529   1460   1451 1
  1530    858    846 1
  1531    859    846 1
  1532    923    911 1
  1533    924    911 1
  1534   1081   1069 1
  1535   1082   1069 1
  1536   1143   1131 1
  1537   1144   1131 1
  1538   1176   1164 1
  1539   1177   1164 1
  1540   1241   1229 1
  1541   1242   1229 1
  1542   1399   1387 1
  1543   1400   1387 1
  1544   1461   1449 1
  1545   1462   1449 1
  1546    955    941 1
  1547    956    941 1
  1548    987    973 1
  1549    988    973 1
  1550   1113   1099 1
  1551   1114   1099 1
  1552   1273   1259 1
  1553   1274   1259 1
  1554   1305   1291 1
  1555   1306   1291 1
  1556   1431   1417 1
  1557   1432   1417 1
  1558    889    878 1
  1559    890    878 1
  1560    891    878 1
  1561   1018   1007 1
  1562   1019   1007 1
  1563   1020   1007 1
  1564   1050   1039 1
  1565   1051   1039 1
  1566   1052   1039 1
  1567   1207   1196 1
  1568   1208   1196 1
  1569   1209   1196 1
  1570   1336   1325 1
  1571   1337   1325 1
  1572   1338   1325 1
  1573   1368   1357 1
  1574   1369   1357 1
  1575   1370   1357 1
  1576   1123   1463 1
  1577   1145   2077 1
  1578   1471   1496 1
  1579   1504   1528 1
  1580   1536   1561 1
  1581   1569   1593 1
  1582   1601   1625 1
  1583   1633   1657 1
  1584   1665   1689 1
  1585   1697   1719 1
  1586   1727   1751 1
  1587   1789   1814 1
  1588   1822   1846 1
  1589   1854   1879 1
  1590   1887   1911 1
  1591   1919   1943 1
  1592   1951   1975 1
  1593   1983   2007 1
  1594   2015   2037 1
  1595   2045   2069 1
  1596   1463   1464 1
  1597   1463   1465 1
  1598   1463   1466 1
  1599   1466   1467 1
  1600   1467   1468 1
  1601   1468   1469 1
  1602   1468   1470 1
  1603   1469   1473 1
  1604   1470   1471 1
  1605   1470   1472 1
  1606   1472   1473 1
  1607   1473   1474 1
  1608   1474   1475 ar
  1609   1474   1484 ar
  1610   1475   1476 ar
  1611   1476   1477 ar
  1612   1477   1478 1
  1613   1477   1484 ar
  1614   1478   1479 2
  1615   1478   1480 am
  1616   1480   1481 1
  1617   1481   1482 2
  1618   1481   1483 2
  1619   1483   1484 1
  1620   1496   1497 1
  1621   1496   1498 1
  1622   1496   1499 1
  1623   1499   1500 1
  1624   1500   1501 1
  1625   1501   1502 1
  1626   1501   1503 1
  1627   1502   1506 1
  1628   1503   1504 1
  1629   1503   1505 1
  1630   1505   1506 1
  1631   1506   1507 1
  1632   1507   1508 am
  1633   1507   1515 1
  1634   1508   1509 2
  1635   1508   1510 am
  1636   1510   1511 am
  1637   1511   1512 2
  1638   1511   1513 1
  1639   1513   1514 1
  1640   1513   1515 2
  1641   1528   1529 1
  1642   1528   1530 1
  1643   1528   1531 1
  1644   1531   1532 1
  1645   1532   1533 1
  1646   1533   1534 1
  1647   1533   1535 1
  1648   1534   1538 1
  1649   1535   1536 1
  1650   1535   1537 1
  1651   1537   1538 1
  1652   1538   1539 1
  1653   1539   1540 ar
  1654   1539   1549 ar
  1655   1540   1541 ar
  1656   1541   1542 ar
  1657   1542   1543 1
  1658   1542   1549 ar
  1659   1543   1544 2
  1660   1543   1545 am
  1661   1545   1546 1
  1662   1546   1547 2
  1663   1546   1548 2
  1664   1548   1549 1
  1665   1561   1562 1
  1666   1561   1563 1
  1667   1561   1564 1
  1668   1564   1565 1
  1669   1565   1566 1
  1670   1566   1567 1
  1671   1566   1568 1
  1672   1567   1571 1
  1673   1568   1569 1
  1674   1568   1570 1
  1675   1570   1571 1
  1676   1571   1572 1
  1677   1572   1573 ar
  1678   1572   1581 ar
  1679   1573   1574 ar
  1680   1574   1575 ar
  1681   1575   1576 ar
  1682   1575   1581 ar
  1683   1576   1577 1
  1684   1576   1578 ar
  1685   1578   1579 ar
  1686   1579   1580 ar
  1687   1580   1581 ar
  1688   1593   1594 1
  1689   1593   1595 1
  1690   1593   1596 1
  1691   1596   1597 1
  1692   1597   1598 1
  1693   1598   1599 1
  1694   1598   1600 1
  1695   1599   1603 1
  1696   1600   1601 1
  1697   1600   1602 1
  1698   1602   1603 1
  1699   1603   1604 1
  1700   1604   1605 ar
  1701   1604   1613 ar
  1702   1605   1606 ar
  1703   1606   1607 ar
  1704   1607   1608 ar
  1705   1607   1613 ar
  1706   1608   1609 1
  1707   1608   1610 ar
  1708   1610   1611 ar
  1709   1611   1612 ar
  1710   1612   1613 ar
  1711   1625   1626 1
  1712   1625   1627 1
  1713   1625   1628 1
  1714   1628   1629 1
  1715   1629   1630 1
  1716   1630   1631 1
  1717   1630   1632 1
  1718   1631   1635 1
  1719   1632   1633 1
  1720   1632   1634 1
  1721   1634   1635 1
  1722   1635   1636 1
  1723   1636   1637 am
  1724   1636   1644 1
  1725   1637   1638 2
  1726   1637   1639 am
  1727   1639   1640 am
  1728   1640   1641 2
  1729   1640   1642 1
  1730   1642   1643 1
  1731   1642   1644 2
  1732   1657   1658 1
  1733   1657   1659 1
  1734   1657   1660 1
  1735   1660   1661 1
  1736   1661   1662 1
  1737   1662   1663 1
  1738   1662   1664 1
  1739   1663   1667 1
  1740   1664   1665 1
  1741   1664   1666 1
  1742   1666   1667 1
  1743   1667   1668 1
  1744   1668   1669 am
  1745   1668   1676 1
  1746   1669   1670 2
  1747   1669   1671 am
  1748   1671   1672 am
  1749   1672   1673 2
  1750   1672   1674 1
  1751   1674   1675 1
  1752   1674   1676 2
  1753   1689   1690 1
  1754   1689   1691 1
  1755   1689   1692 1
  1756   1692   1693 1
  1757   1693   1694 1
  1758   1694   1695 1
  1759   1694   1696 1
  1760   1695   1699 1
  1761   1696   1697 1
  1762   1696   1698 1
  1763   1698   1699 1
  1764   1699   1700 1
  1765   1700   1701 am
  1766   1700   1707 1
  1767   1701   1702 2
  1768   1701   1703 1
  1769   1703   1704 2
  1770   1704   1705 2
  1771   1704   1706 2
  1772   1706   1707 2
  1773   1719   1720 1
  1774   1719   1721 1
  1775   1719   1722 1
  1776   1722   1723 1
  1777   1723   1724 1
  1778   1724   1725 1
  1779   1724   1726 1
  1780   1725   1729 1
  1781   1726   1727 1
  1782   1726   1728 1
  1783   1728   1729 1
  1784   1729   1730 1
  1785   1730   1731 ar
  1786   1730   1739 ar
  1787   1731   1732 ar
  1788   1732   1733 ar
  1789   1733   1734 ar
  1790   1733   1739 ar
  1791   1734   1735 1
  1792   1734   1736 ar
  1793   1736   1737 ar
  1794   1737   1738 ar
  1795   1738   1739 ar
  1796   1751   1752 1
  1797   1751   1753 1
  1798   1751   1754 1
  1799   1754   1755 1
  1800   1755   1756 1
  1801   1756   1757 1
  1802   1756   1758 1
  1803   1757   1761 1
  1804   1758   1759 1
  1805   1758   1760 1
  1806   1760   1761 1
  1807   1761   1762 1
  1808   1762   1763 am
  1809   1762   1769 1
  1810   1763   1764 2
  1811   1763   1765 1
  1812   1765   1766 2
  1813   1766   1767 2
  1814   1766   1768 2
  1815   1768   1769 2
  1816   1781   1782 1
  1817   1781   1783 1
  1818   1781   1784 1
  1819   1784   1785 1
  1820   1785   1786 1
  1821   1786   1787 1
  1822   1786   1788 1
  1823   1787   1791 1
  1824   1788   1789 1
  1825   1788   1790 1
  1826   1790   1791 1
  1827   1791   1792 1
  1828   1792   1793 ar
  1829   1792   1802 ar
  1830   1793   1794 ar
  1831   1794   1795 ar
  1832   1795   1796 1
  1833   1795   1802 ar
  1834   1796   1797 2
  1835   1796   1798 am
  1836   1798   1799 1
  1837   1799   1800 2
  1838   1799   1801 2
  1839   1801   1802 1
  1840   1814   1815 1
  1841   1814   1816 1
  1842   1814   1817 1
  1843   1817   1818 1
  1844   1818   1819 1
  1845   1819   1820 1
  1846   1819   1821 1
  1847   1820   1824 1
  1848   1821   1822 1
  1849   1821   1823 1
  1850   1823   1824 1
  1851   1824   1825 1
  1852   1825   1826 am
  1853   1825   1833 1
  1854   1826   1827 2
  1855   1826   1828 am
  1856   1828   1829 am
  1857   1829   1830 2
  1858   1829   1831 1
  1859   1831   1832 1
  1860   1831   1833 2
  1861   1846   1847 1
  1862   1846   1848 1
  1863   1846   1849 1
  1864   1849   1850 1
  1865   1850   1851 1
  1866   1851   1852 1
  1867   1851   1853 1
  1868   1852   1856 1
  1869   1853   1854 1
  1870   1853   1855 1
  1871   1855   1856 1
  1872   1856   1857 1
  1873   1857   1858 ar
  1874   1857   1867 ar
  1875   1858   1859 ar
  1876   1859   1860 ar
  1877   1860   1861 1
  1878   1860   1867 ar
  1879   1861   1862 2
  1880   1861   1863 am
  1881   1863   1864 1
  1882   1864   1865 2
  1883   1864   1866 2
  1884   1866   1867 1
  1885   1879   1880 1
  1886   1879   1881 1
  1887   1879   1882 1
  1888   1882   1883 1
  1889   1883   1884 1
  1890   1884   1885 1
  1891   1884   1886 1
  1892   1885   1889 1
  1893   1886   1887 1
  1894   1886   1888 1
  1895   1888   1889 1
  1896   1889   1890 1
  1897   1890   1891 ar
  1898   1890   1899 ar
  1899   1891   1892 ar
  1900   1892   1893 ar
  1901   1893   1894 ar
  1902   1893   1899 ar
  1903   1894   1895 1
  1904   1894   1896 ar
  1905   1896   1897 ar
  1906   1897   1898 ar
  1907   1898   1899 ar
  1908   1911   1912 1
  1909   1911   1913 1
  1910   1911   1914 1
  1911   1914   1915 1
  1912   1915   1916 1
  1913   1916   1917 1
  1914   1916   1918 1
  1915   1917   1921 1
  1916   1918   1919 1
  1917   1918   1920 1
  1918   1920   1921 1
  1919   1921   1922 1
  1920   1922   1923 ar
  1921   1922   1931 ar
  1922   1923   1924 ar
  1923   1924   1925 ar
  1924   1925   1926 ar
  1925   1925   1931 ar
  1926   1926   1927 1
  1927   1926   1928 ar
  1928   1928   1929 ar
  1929   1929   1930 ar
  1930   1930   1931 ar
  1931   1943   1944 1
  1932   1943   1945 1
  1933   1943   1946 1
  1934   1946   1947 1
  1935   1947   1948 1
  1936   1948   1949 1
  1937   1948   1950 1
  1938   1949   1953 1
  1939   1950   1951 1
  1940   1950   1952 1
  1941   1952   1953 1
  1942   1953   1954 1
  1943   1954   1955 am
  1944   1954   1962 1
  1945   1955   1956 2
  1946   1955   1957 am
  1947   1957   1958 am
  1948   1958   1959 2
  1949   1958   1960 1
  1950   1960   1961 1
  1951   1960   1962 2
  1952   1975   1976 1
  1953   1975   1977 1
  1954   1975   1978 1
  1955   1978   1979 1
  1956   1979   1980 1
  1957   1980   1981 1
  1958   1980   1982 1
  1959   1981   1985 1
  1960   1982   1983 1
  1961   1982   1984 1
  1962   1984   1985 1
  1963   1985   1986 1
  1964   1986   1987 am
  1965   1986   1994 1
  1966   1987   1988 2
  1967   1987   1989 am
  1968   1989   1990 am
  1969   1990   1991 2
  1970   1990   1992 1
  1971   1992   1993 1
  1972   1992   1994 2
  1973   2007   2008 1
  1974   2007   2009 1
  1975   2007   2010 1
  1976   2010   2011 1
  1977   2011   2012 1
  1978   2012   2013 1
  1979   2012   2014 1
  1980   2013   2017 1
  1981   2014   2015 1
  1982   2014   2016 1
  1983   2016   2017 1
  1984   2017   2018 1
  1985   2018   2019 am
  1986   2018   2025 1
  1987   2019   2020 2
  1988   2019   2021 1
  1989   2021   2022 2
  1990   2022   2023 2
  1991   2022   2024 2
  1992   2024   2025 2
  1993   2037   2038 1
  1994   2037   2039 1
  1995   2037   2040 1
  1996   2040   2041 1
  1997   2041   2042 1
  1998   2042   2043 1
  1999   2042   2044 1
  2000   2043   2047 1
  2001   2044   2045 1
  2002   2044   2046 1
  2003   2046   2047 1
  2004   2047   2048 1
  2005   2048   2049 ar
  2006   2048   2057 ar
  2007   2049   2050 ar
  2008   2050   2051 ar
  2009   2051   2052 ar
  2010   2051   2057 ar
  2011   2052   2053 1
  2012   2052   2054 ar
  2013   2054   2055 ar
  2014   2055   2056 ar
  2015   2056   2057 ar
  2016   2069   2070 1
  2017   2069   2071 1
  2018   2069   2072 1
  2019   2072   2073 1
  2020   2073   2074 1
  2021   2074   2075 1
  2022   2074   2076 1
  2023   2075   2079 1
  2024   2076   2077 1
  2025   2076   2078 1
  2026   2078   2079 1
  2027   2079   2080 1
  2028   2080   2081 am
  2029   2080   2087 1
  2030   2081   2082 2
  2031   2081   2083 1
  2032   2083   2084 2
  2033   2084   2085 2
  2034   2084   2086 2
  2035   2086   2087 2
  2036   1485   1467 1
  2037   1486   1467 1
  2038   1487   1468 1
  2039   1488   1470 1
  2040   1489   1472 1
  2041   1490   1472 1
  2042   1491   1473 1
  2043   1492   1475 1
  2044   1493   1480 1
  2045   1516   1500 1
  2046   1517   1500 1
  2047   1518   1501 1
  2048   1519   1503 1
  2049   1520   1505 1
  2050   1521   1505 1
  2051   1522   1506 1
  2052   1523   1510 1
  2053   1524   1515 1
  2054   1550   1532 1
  2055   1551   1532 1
  2056   1552   1533 1
  2057   1553   1535 1
  2058   1554   1537 1
  2059   1555   1537 1
  2060   1556   1538 1
  2061   1557   1540 1
  2062   1558   1545 1
  2063   1582   1565 1
  2064   1583   1565 1
  2065   1584   1566 1
  2066   1585   1568 1
  2067   1586   1570 1
  2068   1587   1570 1
  2069   1588   1571 1
  2070   1589   1573 1
  2071   1590   1579 1
  2072   1614   1597 1
  2073   1615   1597 1
  2074   1616   1598 1
  2075   1617   1600 1
  2076   1618   1602 1
  2077   1619   1602 1
  2078   1620   1603 1
  2079   1621   1605 1
  2080   1622   1611 1
  2081   1645   1629 1
  2082   1646   1629 1
  2083   1647   1630 1
  2084   1648   1632 1
  2085   1649   1634 1
  2086   1650   1634 1
  2087   1651   1635 1
  2088   1652   1639 1
  2089   1653   1644 1
  2090   1677   1661 1
  2091   1678   1661 1
  2092   1679   1662 1
  2093   1680   1664 1
  2094   1681   1666 1
  2095   1682   1666 1
  2096   1683   1667 1
  2097   1684   1671 1
  2098   1685   1676 1
  2099   1708   1693 1
  2100   1709   1693 1
  2101   1710   1694 1
  2102   1711   1696 1
  2103   1712   1698 1
  2104   1713   1698 1
  2105   1714   1699 1
  2106   1715   1706 1
  2107   1716   1707 1
  2108   1740   1723 1
  2109   1741   1723 1
  2110   1742   1724 1
  2111   1743   1726 1
  2112   1744   1728 1
  2113   1745   1728 1
  2114   1746   1729 1
  2115   1747   1731 1
  2116   1748   1737 1
  2117   1770   1755 1
  2118   1771   1755 1
  2119   1772   1756 1
  2120   1773   1758 1
  2121   1774   1760 1
  2122   1775   1760 1
  2123   1776   1761 1
  2124   1777   1768 1
  2125   1778   1769 1
  2126   1803   1785 1
  2127   1804   1785 1
  2128   1805   1786 1
  2129   1806   1788 1
  2130   1807   1790 1
  2131   1808   1790 1
  2132   1809   1791 1
  2133   1810   1793 1
  2134   1811   1798 1
  2135   1834   1818 1
  2136   1835   1818 1
  2137   1836   1819 1
  2138   1837   1821 1
  2139   1838   1823 1
  2140   1839   1823 1
  2141   1840   1824 1
  2142   1841   1828 1
  2143   1842   1833 1
  2144   1868   1850 1
  2145   1869   1850 1
  2146   1870   1851 1
  2147   1871   1853 1
  2148   1872   1855 1
  2149   1873   1855 1
  2150   1874   1856 1
  2151   1875   1858 1
  2152   1876   1863 1
  2153   1900   1883 1
  2154   1901   1883 1
  2155   1902   1884 1
  2156   1903   1886 1
  2157   1904   1888 1
  2158   1905   1888 1
  2159   1906   1889 1
  2160   1907   1891 1
  2161   1908   1897 1
  2162   1932   1915 1
  2163   1933   1915 1
  2164   1934   1916 1
  2165   1935   1918 1
  2166   1936   1920 1
  2167   1937   1920 1
  2168   1938   1921 1
  2169   1939   1923 1
  2170   1940   1929 1
  2171   1963   1947 1
  2172   1964   1947 1
  2173   1965   1948 1
  2174   1966   1950 1
  2175   1967   1952 1
  2176   1968   1952 1
  2177   1969   1953 1
  2178   1970   1957 1
  2179   1971   1962 1
  2180   1995   1979 1
  2181   1996   1979 1
  2182   1997   1980 1
  2183   1998   1982 1
  2184   1999   1984 1
  2185   2000   1984 1
  2186   2001   1985 1
  2187   2002   1989 1
  2188   2003   1994 1
  2189   2026   2011 1
  2190   2027   2011 1
  2191   2028   2012 1
  2192   2029   2014 1
  2193   2030   2016 1
  2194   2031   2016 1
  2195   2032   2017 1
  2196   2033   2024 1
  2197   2034   2025 1
  2198   2058   2041 1
  2199   2059   2041 1
  2200   2060   2042 1
  2201   2061   2044 1
  2202   2062   2046 1
  2203   2063   2046 1
  2204   2064   2047 1
  2205   2065   2049 1
  2206   2066   2055 1
  2207   2088   2073 1
  2208   2089   2073 1
  2209   2090   2074 1
  2210   2091   2076 1
  2211   2092   2078 1
  2212   2093   2078 1
  2213   2094   2079 1
  2214   2095   2086 1
  2215   2096   2087 1
  2216   1494   1482 1
  2217   1495   1482 1
  2218   1559   1547 1
  2219   1560   1547 1
  2220   1717   1705 1
  2221   1718   1705 1
  2222   1779   1767 1
  2223   1780   1767 1
  2224   1812   1800 1
  2225   1813   1800 1
  2226   1877   1865 1
  2227   1878   1865 1
  2228   2035   2023 1
  2229   2036   2023 1
  2230   2097   2085 1
  2231   2098   2085 1
  2232   1591   1577 1
  2233   1592   1577 1
  2234   1623   1609 1
  2235   1624   1609 1
  2236   1749   1735 1
  2237   1750   1735 1
  2238   1909   1895 1
  2239   1910   1895 1
  2240   1941   1927 1
  2241   1942   1927 1
  2242   2067   2053 1
  2243   2068   2053 1
  2244   1525   1514 1
  2245   1526   1514 1
  2246   1527   1514 1
  2247   1654   1643 1
  2248   1655   1643 1
  2249   1656   1643 1
  2250   1686   1675 1
  2251   1687   1675 1
  2252   1688   1675 1
  2253   1843   1832 1
  2254   1844   1832 1
  2255   1845   1832 1
  2256   1972   1961 1
  2257   1973   1961 1
  2258   1974   1961 1
  2259   2004   1993 1
  2260   2005   1993 1
  2261   2006   1993 1
@<TRIPOS>MOLECULE
dna-seg-09-bp34
2162 2330 1 0 0
BIOPOLYMER
NO_CHARGES


@<TRIPOS>ATOM
      1 P          7.8697    -6.2008   964.2256 P.3      301 DG      0.0000
      2 OP1        8.4583    -7.5628   964.2240 O.co2    301 DG      0.0000
      3 OP2        6.7545    -6.2012   965.2813 O.co2    301 DG      0.0000
      4 O5'        8.8775    -4.9824   964.4040 O.3      301 DG      0.0000
      5 C5'        9.4015    -4.0831   963.4040 C.3      301 DG      0.0000
      6 C4'        9.2178    -2.6650   963.9028 C.3      301 DG      0.0000
      7 O4'        7.9899    -2.1098   963.4836 O.3      301 DG      0.0000
      8 C3'        9.3162    -2.4202   965.3950 C.3      301 DG      0.0000
      9 O3'       10.2948    -1.3923   965.7070 O.3      301 DG      0.0000
     10 C2'        7.9059    -2.0543   965.8169 C.3      301 DG      0.0000
     11 C1'        7.2994    -1.4761   964.5612 C.3      301 DG      0.0000
     12 N9         5.8495    -1.7409   964.5322 N.ar     301 DG      0.0000
     13 C8         5.1727    -2.9157   964.7610 C.ar     301 DG      0.0000
     14 N7         3.8663    -2.8086   964.6713 N.ar     301 DG      0.0000
     15 C5         3.6649    -1.4677   964.3543 C.ar     301 DG      0.0000
     16 C6         2.4840    -0.7183   964.1284 C.2      301 DG      0.0000
     17 O6         1.3168    -1.1100   964.1497 O.2      301 DG      0.0000
     18 N1         2.6797     0.6061   963.8469 N.am     301 DG      0.0000
     19 C2         3.8534     1.1492   963.7862 C.2      301 DG      0.0000
     20 N2         3.7573     2.3869   963.4895 N.pl3    301 DG      0.0000
     21 N3         5.0725     0.4965   963.9950 N.2      301 DG      0.0000
     22 C4         4.8727    -0.8009   964.2676 C.ar     301 DG      0.0000
     23 H5'       10.4609    -4.2843   963.2453 H        301 DG      0.0000
     24 H5''       8.8580    -4.2168   962.4686 H        301 DG      0.0000
     25 H4'       10.0028    -2.0685   963.4381 H        301 DG      0.0000
     26 H3'        9.6055    -3.3478   965.8889 H        301 DG      0.0000
     27 H2'        7.3562    -2.9368   966.1438 H        301 DG      0.0000
     28 H2''       7.9280    -1.3052   966.6084 H        301 DG      0.0000
     29 H1'        7.4768    -0.4011   964.5293 H        301 DG      0.0000
     30 H8         5.6713    -3.8450   964.9941 H        301 DG      0.0000
     31 H1         1.8709     1.1871   963.6785 H        301 DG      0.0000
     32 H21        2.8482     2.8025   963.3451 H        301 DG      0.0000
     33 H22        4.5904     2.9506   963.3990 H        301 DG      0.0000
     34 P         10.4099    -0.7301   967.1355 P.3      302 DT      0.0000
     35 OP1       11.8056    -0.4840   967.6472 O.co2    302 DT      0.0000
     36 OP2        9.8445    -1.8285   968.0542 O.co2    302 DT      0.0000
     37 O5'        9.4606     0.4950   967.1641 O.3      302 DT      0.0000
     38 C5'        9.9268     1.8649   967.0201 C.3      302 DT      0.0000
     39 C4'        8.6678     2.7045   967.0776 C.3      302 DT      0.0000
     40 O4'        7.5094     1.9478   966.8025 O.3      302 DT      0.0000
     41 C3'        8.3759     3.3864   968.3903 C.3      302 DT      0.0000
     42 O3'        8.4571     4.8069   968.2021 O.3      302 DT      0.0000
     43 C2'        6.9641     2.9513   968.7826 C.3      302 DT      0.0000
     44 C1'        6.3842     2.6294   967.4298 C.3      302 DT      0.0000
     45 N1         5.2883     1.6650   967.5265 N.am     302 DT      0.0000
     46 C2         4.0176     2.1330   967.3285 C.2      302 DT      0.0000
     47 O2         3.7793     3.3148   967.0903 O.2      302 DT      0.0000
     48 N3         2.9982     1.2229   967.4096 N.am     302 DT      0.0000
     49 C4         3.2030    -0.0891   967.6655 C.2      302 DT      0.0000
     50 O4         2.1679    -0.8042   967.7108 O.2      302 DT      0.0000
     51 C5         4.5400    -0.5611   967.8652 C.2      302 DT      0.0000
     52 C7         4.8095    -2.0039   968.1451 C.3      302 DT      0.0000
     53 C6         5.5308     0.3361   967.7837 C.2      302 DT      0.0000
     54 H5'       10.6027     2.1287   967.8335 H        302 DT      0.0000
     55 H5''      10.4240     1.9953   966.0589 H        302 DT      0.0000
     56 H4'        8.7489     3.4771   966.3131 H        302 DT      0.0000
     57 H3'        9.0917     3.0662   969.1474 H        302 DT      0.0000
     58 H2'        6.9797     2.0756   969.4314 H        302 DT      0.0000
     59 H2''       6.4216     3.7721   969.2518 H        302 DT      0.0000
     60 H1'        6.0933     3.5272   966.8845 H        302 DT      0.0000
     61 H3         2.0512     1.5456   967.2721 H        302 DT      0.0000
     62 H6         6.5497     0.0065   967.9241 H        302 DT      0.0000
     63 H71        5.1751    -2.4881   967.2396 H        302 DT      0.0000
     64 H72        3.8890    -2.4888   968.4699 H        302 DT      0.0000
     65 H73        5.5609    -2.0874   968.9304 H        302 DT      0.0000
     66 P          9.0935     5.5832   969.4821 P.3      303 DG      0.0000
     67 OP1        9.8845     6.6712   968.7670 O.co2    303 DG      0.0000
     68 OP2        9.9154     4.6531   970.2356 O.co2    303 DG      0.0000
     69 O5'        7.6666     6.0899   970.0916 O.3      303 DG      0.0000
     70 C5'        6.8382     6.6445   969.0010 C.3      303 DG      0.0000
     71 C4'        5.4381     6.7870   969.5210 C.3      303 DG      0.0000
     72 O4'        4.5876     5.6863   969.3405 O.3      303 DG      0.0000
     73 C3'        5.3993     7.1359   971.0291 C.3      303 DG      0.0000
     74 O3'        4.6029     8.3349   971.1879 O.3      303 DG      0.0000
     75 C2'        4.8626     5.8799   971.6817 C.3      303 DG      0.0000
     76 C1'        3.9338     5.3406   970.6001 C.3      303 DG      0.0000
     77 N9         3.6945     3.9031   970.7696 N.ar     303 DG      0.0000
     78 C8         4.5853     2.9212   971.1058 C.ar     303 DG      0.0000
     79 N7         4.0662     1.7162   971.1916 N.ar     303 DG      0.0000
     80 C5         2.7295     1.9282   970.8616 C.ar     303 DG      0.0000
     81 C6         1.6378     1.0184   970.7672 C.2      303 DG      0.0000
     82 O6         1.6427    -0.2066   970.9595 O.2      303 DG      0.0000
     83 N1         0.4379     1.6028   970.4322 N.am     303 DG      0.0000
     84 C2         0.3259     2.9412   970.2084 C.2      303 DG      0.0000
     85 N2        -0.9169     3.3340   969.8996 N.pl3    303 DG      0.0000
     86 N3         1.3144     3.8297   970.2794 N.2      303 DG      0.0000
     87 C4         2.4876     3.2609   970.6060 C.ar     303 DG      0.0000
     88 H5'        7.2237     7.6188   968.7005 H        303 DG      0.0000
     89 H5''       6.8476     5.9652   968.1486 H        303 DG      0.0000
     90 H4'        4.9872     7.6256   968.9905 H        303 DG      0.0000
     91 H3'        6.4127     7.3242   971.3838 H        303 DG      0.0000
     92 H2'        5.6636     5.1751   971.9046 H        303 DG      0.0000
     93 H2''       4.3021     6.1240   972.5841 H        303 DG      0.0000
     94 H1'        2.9808     5.8664   970.6590 H        303 DG      0.0000
     95 H8         5.6314     3.1198   971.2865 H        303 DG      0.0000
     96 H1        -0.3842     1.0218   970.3498 H        303 DG      0.0000
     97 H21       -1.6633     2.6554   969.8494 H        303 DG      0.0000
     98 H22       -1.1077     4.3089   969.7169 H        303 DG      0.0000
     99 P          4.4480     9.0364   972.5764 P.3      304 DA      0.0000
    100 OP1        5.4741    10.0631   972.9317 O.co2    304 DA      0.0000
    101 OP2        4.7135     7.7711   973.4721 O.co2    304 DA      0.0000
    102 O5'        2.9170     9.3660   972.8255 O.3      304 DA      0.0000
    103 C5'        1.9276     9.5144   971.7964 C.3      304 DA      0.0000
    104 C4'        0.7314     8.7051   972.2708 C.3      304 DA      0.0000
    105 O4'        1.0056     7.3234   972.1804 O.3      304 DA      0.0000
    106 C3'        0.2582     8.9715   973.6998 C.3      304 DA      0.0000
    107 O3'       -1.1733     9.1421   973.7521 O.3      304 DA      0.0000
    108 C2'        0.7388     7.7145   974.4352 C.3      304 DA      0.0000
    109 C1'        0.4536     6.6794   973.3577 C.3      304 DA      0.0000
    110 N9         1.1148     5.3907   973.5861 N.ar     304 DA      0.0000
    111 C8         2.4334     5.1062   973.8018 C.ar     304 DA      0.0000
    112 N7         2.6822     3.8262   973.9668 N.ar     304 DA      0.0000
    113 C5         1.4402     3.2252   973.8266 C.ar     304 DA      0.0000
    114 C6         1.0456     1.8702   973.8746 C.ar     304 DA      0.0000
    115 N6         1.8772     0.8491   974.0943 N.pl3    304 DA      0.0000
    116 N1        -0.2885     1.6451   973.6847 N.ar     304 DA      0.0000
    117 C2        -1.1493     2.6661   973.4670 C.ar     304 DA      0.0000
    118 N3        -0.8501     3.9632   973.4087 N.ar     304 DA      0.0000
    119 C4         0.4668     4.1662   973.5956 C.ar     304 DA      0.0000
    120 H5'        2.3007     9.1248   970.8492 H        304 DA      0.0000
    121 H5''       1.6523    10.5635   971.6886 H        304 DA      0.0000
    122 H4'       -0.1009     8.9216   971.6010 H        304 DA      0.0000
    123 H3'        0.7560     9.8542   974.1012 H        304 DA      0.0000
    124 H2'        1.7996     7.7661   974.6807 H        304 DA      0.0000
    125 H2''       0.1391     7.5283   975.3261 H        304 DA      0.0000
    126 H1'       -0.6211     6.5384   973.2431 H        304 DA      0.0000
    127 H8         3.2017     5.8645   973.8339 H        304 DA      0.0000
    128 H2        -2.1870     2.4022   973.3256 H        304 DA      0.0000
    129 H61        2.8817     0.8893   973.9969 H        304 DA      0.0000
    130 H62        1.5413    -0.0879   973.9228 H        304 DA      0.0000
    131 P         -1.9070    10.0679   974.8935 P.3      305 DA      0.0000
    132 OP1       -2.6435    11.2028   974.2265 O.co2    305 DA      0.0000
    133 OP2       -0.7518    10.4642   975.7244 O.co2    305 DA      0.0000
    134 O5'       -3.0643     9.1067   975.4244 O.3      305 DA      0.0000
    135 C5'       -4.1172     8.6095   974.6000 C.3      305 DA      0.0000
    136 C4'       -4.5196     7.2415   975.1223 C.3      305 DA      0.0000
    137 O4'       -3.4269     6.3673   975.1505 O.3      305 DA      0.0000
    138 C3'       -5.1782     7.1802   976.4897 C.3      305 DA      0.0000
    139 O3'       -6.5187     6.6959   976.4118 O.3      305 DA      0.0000
    140 C2'       -4.2198     6.3160   977.3184 C.3      305 DA      0.0000
    141 C1'       -3.4943     5.4948   976.3246 C.3      305 DA      0.0000
    142 N9        -2.1167     5.0434   976.5926 N.ar     305 DA      0.0000
    143 C8        -0.9559     5.7691   976.7078 C.ar     305 DA      0.0000
    144 N7         0.1199     5.0376   976.8771 N.ar     305 DA      0.0000
    145 C5        -0.3580     3.7316   976.8401 C.ar     305 DA      0.0000
    146 C6         0.3039     2.4765   976.9606 C.ar     305 DA      0.0000
    147 N6         1.6062     2.3077   977.1522 N.pl3    305 DA      0.0000
    148 N1        -0.5017     1.3697   976.8624 N.ar     305 DA      0.0000
    149 C2        -1.8466     1.5036   976.6733 C.ar     305 DA      0.0000
    150 N3        -2.5257     2.6399   976.5655 N.ar     305 DA      0.0000
    151 C4        -1.7214     3.7180   976.6573 C.ar     305 DA      0.0000
    152 H5'       -3.7709     8.5243   973.5700 H        305 DA      0.0000
    153 H5''      -4.9706     9.2860   974.6460 H        305 DA      0.0000
    154 H4'       -5.2342     6.8298   974.4096 H        305 DA      0.0000
    155 H3'       -5.1952     8.1845   976.9129 H        305 DA      0.0000
    156 H2'       -3.5256     6.9423   977.8787 H        305 DA      0.0000
    157 H2''      -4.7820     5.6756   977.9980 H        305 DA      0.0000
    158 H1'       -4.1043     4.6256   976.0785 H        305 DA      0.0000
    159 H8        -0.9312     6.8479   976.6630 H        305 DA      0.0000
    160 H2        -2.4185     0.5900   976.6041 H        305 DA      0.0000
    161 H61        2.2041     3.0536   977.4784 H        305 DA      0.0000
    162 H62        2.0134     1.4025   976.9654 H        305 DA      0.0000
    163 P         -7.7488     7.1613   977.3680 P.3      306 DT      0.0000
    164 OP1       -9.0331     7.3590   976.5707 O.co2    306 DT      0.0000
    165 OP2       -7.3605     8.2892   978.1886 O.co2    306 DT      0.0000
    166 O5'       -8.0778     5.7703   978.1818 O.3      306 DT      0.0000
    167 C5'       -7.9834     4.6203   977.2367 C.3      306 DT      0.0000
    168 C4'       -7.2755     3.5473   978.0244 C.3      306 DT      0.0000
    169 O4'       -5.9015     3.7989   978.2163 O.3      306 DT      0.0000
    170 C3'       -7.8572     3.3857   979.4410 C.3      306 DT      0.0000
    171 O3'       -8.7701     2.3037   979.4426 O.3      306 DT      0.0000
    172 C2'       -6.6366     3.1970   980.3382 C.3      306 DT      0.0000
    173 C1'       -5.5535     2.9205   979.3736 C.3      306 DT      0.0000
    174 N1        -4.1690     3.2081   979.7134 N.am     306 DT      0.0000
    175 C2        -3.3161     2.1174   979.8513 C.2      306 DT      0.0000
    176 O2        -3.7624     0.9808   979.7633 O.2      306 DT      0.0000
    177 N3        -1.9995     2.3575   980.1053 N.am     306 DT      0.0000
    178 C4        -1.4894     3.6185   980.2254 C.2      306 DT      0.0000
    179 O4        -0.2509     3.7597   980.4806 O.2      306 DT      0.0000
    180 C5        -2.3826     4.7269   980.0538 C.2      306 DT      0.0000
    181 C7        -1.8675     6.1368   980.1414 C.3      306 DT      0.0000
    182 C6        -3.6798     4.4846   979.7981 C.2      306 DT      0.0000
    183 H5'       -8.9761     4.2862   976.9350 H        306 DT      0.0000
    184 H5''      -7.3954     4.8972   976.3616 H        306 DT      0.0000
    185 H4'       -7.3838     2.6005   977.4952 H        306 DT      0.0000
    186 H3'       -8.3782     4.3000   979.7253 H        306 DT      0.0000
    187 H2'       -6.4289     4.1004   980.9116 H        306 DT      0.0000
    188 H2''      -6.7805     2.3465   981.0046 H        306 DT      0.0000
    189 H1'       -5.6259     1.8802   979.0563 H        306 DT      0.0000
    190 H3        -1.3750     1.5706   980.2090 H        306 DT      0.0000
    191 H6        -4.3530     5.3171   979.6559 H        306 DT      0.0000
    192 H71       -0.7987     6.1211   980.3544 H        306 DT      0.0000
    193 H72       -2.0414     6.6463   979.1936 H        306 DT      0.0000
    194 H73       -2.3893     6.6654   980.9392 H        306 DT      0.0000
    195 P         -9.7676     1.8679   980.5493 P.3      307 DT      0.0000
    196 OP1      -10.9228     1.0341   979.9372 O.co2    307 DT      0.0000
    197 OP2      -10.2638     3.1186   981.1792 O.co2    307 DT      0.0000
    198 O5'       -8.9502     0.8072   981.4316 O.3      307 DT      0.0000
    199 C5'       -8.7093    -0.4362   980.7198 C.3      307 DT      0.0000
    200 C4'       -7.6014    -1.1666   981.3960 C.3      307 DT      0.0000
    201 O4'       -6.3590    -0.4748   981.3726 O.3      307 DT      0.0000
    202 C3'       -7.8805    -1.5254   982.8626 C.3      307 DT      0.0000
    203 O3'       -7.4729    -2.8544   983.1266 O.3      307 DT      0.0000
    204 C2'       -6.9469    -0.5354   983.5989 C.3      307 DT      0.0000
    205 C1'       -5.7406    -0.6906   982.6954 C.3      307 DT      0.0000
    206 N1        -4.7326     0.3101   982.9931 N.am     307 DT      0.0000
    207 C2        -3.4057    -0.0844   983.0479 C.2      307 DT      0.0000
    208 O2        -3.1279    -1.2697   982.8595 O.2      307 DT      0.0000
    209 N3        -2.4596     0.8650   983.3138 N.am     307 DT      0.0000
    210 C4        -2.7808     2.1714   983.5208 C.2      307 DT      0.0000
    211 O4        -1.8496     2.9968   983.7441 O.2      307 DT      0.0000
    212 C5        -4.1488     2.5667   983.4557 C.2      307 DT      0.0000
    213 C7        -4.5820     3.9883   983.6657 C.3      307 DT      0.0000
    214 C6        -5.0649     1.6212   983.1946 C.2      307 DT      0.0000
    215 H5'       -9.6122    -1.0467   980.7322 H        307 DT      0.0000
    216 H5''      -8.4288    -0.2192   979.6891 H        307 DT      0.0000
    217 H4'       -7.4581    -2.1034   980.8575 H        307 DT      0.0000
    218 H3'       -8.9262    -1.3647   983.1250 H        307 DT      0.0000
    219 H2'       -7.3377     0.4821   983.5977 H        307 DT      0.0000
    220 H2''      -6.7294    -0.8748   984.6116 H        307 DT      0.0000
    221 H1'       -5.3251    -1.6954   982.7710 H        307 DT      0.0000
    222 H3        -1.4893     0.5881   983.3582 H        307 DT      0.0000
    223 H6        -6.1050     1.9071   983.1415 H        307 DT      0.0000
    224 H71       -3.7086     4.6093   983.8646 H        307 DT      0.0000
    225 H72       -5.0880     4.3496   982.7704 H        307 DT      0.0000
    226 H73       -5.2644     4.0387   984.5141 H        307 DT      0.0000
    227 P         -8.1303    -4.1433   983.7346 P.3      308 DC      0.0000
    228 OP1       -8.3905    -5.1883   982.6667 O.co2    308 DC      0.0000
    229 OP2       -9.3162    -3.6666   984.4696 O.co2    308 DC      0.0000
    230 O5'       -6.8165    -4.6448   984.5606 O.3      308 DC      0.0000
    231 C5'       -5.7535    -4.6650   983.5383 C.3      308 DC      0.0000
    232 C4'       -4.4797    -5.0508   984.2349 C.3      308 DC      0.0000
    233 O4'       -3.6505    -3.9578   984.4818 O.3      308 DC      0.0000
    234 C3'       -4.6617    -5.8403   985.5263 C.3      308 DC      0.0000
    235 O3'       -3.9731    -7.0813   985.4466 O.3      308 DC      0.0000
    236 C2'       -4.2043    -4.8242   986.5751 C.3      308 DC      0.0000
    237 C1'       -3.2043    -3.9888   985.8787 C.3      308 DC      0.0000
    238 N1        -3.1793    -2.5609   986.2108 N.am     308 DC      0.0000
    239 C2        -1.9222    -2.0176   986.4666 C.2      308 DC      0.0000
    240 O2        -0.9070    -2.7206   986.4711 O.2      308 DC      0.0000
    241 N3        -1.8577    -0.6737   986.7404 N.2      308 DC      0.0000
    242 C4        -2.9743     0.1095   986.7305 C.2      308 DC      0.0000
    243 N4        -2.8089     1.3983   987.0073 N.pl3    308 DC      0.0000
    244 C5        -4.2399    -0.4521   986.4525 C.2      308 DC      0.0000
    245 C6        -4.2869    -1.7739   986.1877 C.2      308 DC      0.0000
    246 H5'       -5.9925    -5.3948   982.7647 H        308 DC      0.0000
    247 H5''      -5.6478    -3.6753   983.0941 H        308 DC      0.0000
    248 H4'       -3.9373    -5.7015   983.5489 H        308 DC      0.0000
    249 H3'       -5.7240    -6.0376   985.6696 H        308 DC      0.0000
    250 H2'       -5.0439    -4.2167   986.9130 H        308 DC      0.0000
    251 H2''      -3.7448    -5.3360   987.4206 H        308 DC      0.0000
    252 H1'       -2.2086    -4.4248   985.9596 H        308 DC      0.0000
    253 H5        -5.1347     0.1527   986.4519 H        308 DC      0.0000
    254 H6        -5.2395    -2.2231   985.9487 H        308 DC      0.0000
    255 H41       -1.8863     1.7577   987.2066 H        308 DC      0.0000
    256 H42       -3.6059     2.0186   987.0187 H        308 DC      0.0000
    257 P         -4.2087    -8.3742   986.3987 P.3      309 DA      0.0000
    258 OP1       -3.7797    -9.5933   985.6049 O.co2    309 DA      0.0000
    259 OP2       -5.6439    -8.4250   986.7442 O.co2    309 DA      0.0000
    260 O5'       -3.2353    -8.0944   987.6957 O.3      309 DA      0.0000
    261 C5'       -1.8368    -7.7942   987.4005 C.3      309 DA      0.0000
    262 C4'       -1.0974    -7.4650   988.6557 C.3      309 DA      0.0000
    263 O4'       -0.9042    -6.0682   988.8979 O.3      309 DA      0.0000
    264 C3'       -1.7637    -7.9313   989.9610 C.3      309 DA      0.0000
    265 O3'       -0.7731    -7.9656   990.9909 O.3      309 DA      0.0000
    266 C2'       -2.7402    -6.7576   990.1756 C.3      309 DA      0.0000
    267 C1'       -1.7101    -5.6379   989.9923 C.3      309 DA      0.0000
    268 N9        -2.4009    -4.3630   989.8980 N.ar     309 DA      0.0000
    269 C8        -3.7333    -4.0784   989.7821 C.ar     309 DA      0.0000
    270 N7        -4.0294    -2.7912   989.7635 N.ar     309 DA      0.0000
    271 C5        -2.7882    -2.1798   989.8711 C.ar     309 DA      0.0000
    272 C6        -2.4012    -0.8174   989.9056 C.ar     309 DA      0.0000
    273 N6        -3.2376     0.2014   989.8203 N.pl3    309 DA      0.0000
    274 N1        -1.0638    -0.5754   990.0382 N.ar     309 DA      0.0000
    275 C2        -0.1608    -1.6019   990.1184 C.ar     309 DA      0.0000
    276 N3        -0.4463    -2.9015   990.0885 N.ar     309 DA      0.0000
    277 C4        -1.7780    -3.1230   989.9655 C.ar     309 DA      0.0000
    278 H5'       -1.3752    -8.6620   986.9293 H        309 DA      0.0000
    279 H5''      -1.7864    -6.9448   986.7192 H        309 DA      0.0000
    280 H4'       -0.1147    -7.9327   988.5968 H        309 DA      0.0000
    281 H3'       -2.2786    -8.8852   989.8473 H        309 DA      0.0000
    282 H2'       -3.5298    -6.7272   989.4248 H        309 DA      0.0000
    283 H2''      -3.1504    -6.7601   991.1855 H        309 DA      0.0000
    284 H1'       -1.0809    -5.6128   990.8819 H        309 DA      0.0000
    285 H8        -4.4873    -4.8484   989.7112 H        309 DA      0.0000
    286 H2         0.8803    -1.3314   990.2148 H        309 DA      0.0000
    287 H61       -3.1603     1.1922   990.0004 H        309 DA      0.0000
    288 H62       -4.1580    -0.0706   989.5056 H        309 DA      0.0000
    289 P          0.2417    -9.1948   991.1314 P.3      310 DC      0.0000
    290 OP1        0.3585   -10.0054   989.8863 O.co2    310 DC      0.0000
    291 OP2       -0.3515    -9.9668   992.2743 O.co2    310 DC      0.0000
    292 O5'        1.6329    -8.4882   991.4145 O.3      310 DC      0.0000
    293 C5'        2.4441    -7.9501   990.3268 C.3      310 DC      0.0000
    294 C4'        3.1842    -6.8078   991.0318 C.3      310 DC      0.0000
    295 O4'        2.2307    -5.8187   991.3438 O.3      310 DC      0.0000
    296 C3'        3.8499    -7.2213   992.3417 C.3      310 DC      0.0000
    297 O3'        5.2429    -6.8411   992.4096 O.3      310 DC      0.0000
    298 C2'        2.9855    -6.5569   993.4239 C.3      310 DC      0.0000
    299 C1'        2.5093    -5.3357   992.7477 C.3      310 DC      0.0000
    300 N1         1.2344    -4.7165   993.1005 N.am     310 DC      0.0000
    301 C2         1.2253    -3.3231   993.0736 C.2      310 DC      0.0000
    302 O2         2.2332    -2.6590   992.8667 O.2      310 DC      0.0000
    303 N3         0.0427    -2.7010   993.3268 N.2      310 DC      0.0000
    304 C4        -1.1038    -3.3844   993.5601 C.2      310 DC      0.0000
    305 N4        -2.1992    -2.6632   993.7910 N.pl3    310 DC      0.0000
    306 C5        -1.0846    -4.8063   993.5667 C.2      310 DC      0.0000
    307 C6         0.0860    -5.4133   993.3172 C.2      310 DC      0.0000
    308 H5'        3.1389    -8.6965   989.9420 H        310 DC      0.0000
    309 H5''       1.8109    -7.5643   989.5278 H        310 DC      0.0000
    310 H4'        3.9336    -6.3907   990.3591 H        310 DC      0.0000
    311 H3'        3.7753    -8.3036   992.4476 H        310 DC      0.0000
    312 H2'        2.1522    -7.1984   993.7109 H        310 DC      0.0000
    313 H2''       3.5902    -6.3020   994.2941 H        310 DC      0.0000
    314 H1'        3.2987    -4.5842   992.7344 H        310 DC      0.0000
    315 H5        -1.9797    -5.3771   993.7652 H        310 DC      0.0000
    316 H6         0.1177    -6.4924   993.2875 H        310 DC      0.0000
    317 H41       -2.1513    -1.6544   993.7800 H        310 DC      0.0000
    318 H42       -3.0780    -3.1251   993.9772 H        310 DC      0.0000
    319 P         -4.0213     7.4750   995.3691 P.3      310 DG      0.0000
    320 OP1       -4.7830     8.7497   995.5479 O.co2    310 DG      0.0000
    321 OP2       -4.6042     6.5790   994.2843 O.co2    310 DG      0.0000
    322 O5'       -2.4248     7.8178   995.1619 O.3      310 DG      0.0000
    323 C5'       -1.4885     7.5486   996.2576 C.3      310 DG      0.0000
    324 C4'       -0.1988     7.0329   995.6233 C.3      310 DG      0.0000
    325 O4'       -0.1833     5.6347   995.5275 O.3      310 DG      0.0000
    326 C3'        0.0692     7.5623   994.2170 C.3      310 DG      0.0000
    327 O3'        1.4563     7.8730   993.9500 O.3      310 DG      0.0000
    328 C2'       -0.4374     6.4226   993.3147 C.3      310 DG      0.0000
    329 C1'       -0.0388     5.2094   994.1385 C.3      310 DG      0.0000
    330 N9        -0.9279     4.0675   993.8652 N.ar     310 DG      0.0000
    331 C8        -2.2936     4.0783   993.7086 C.ar     310 DG      0.0000
    332 N7        -2.8123     2.8991   993.4902 N.ar     310 DG      0.0000
    333 C5        -1.7147     2.0468   993.5150 C.ar     310 DG      0.0000
    334 C6        -1.6176     0.6384   993.3585 C.2      310 DG      0.0000
    335 O6        -2.5527    -0.1506   993.1617 O.2      310 DG      0.0000
    336 N1        -0.3383     0.1470   993.4454 N.am     310 DG      0.0000
    337 C2         0.7376     0.9416   993.6661 C.2      310 DG      0.0000
    338 N2         1.9142     0.3242   993.7294 N.pl3    310 DG      0.0000
    339 N3         0.7011     2.2704   993.8238 N.2      310 DG      0.0000
    340 C4        -0.5543     2.7518   993.7405 C.ar     310 DG      0.0000
    341 H5'       -1.2915     8.4642   996.8154 H        310 DG      0.0000
    342 H5''      -1.9035     6.7912   996.9226 H        310 DG      0.0000
    343 H4'        0.6327     7.3351   996.2601 H        310 DG      0.0000
    344 H3'       -0.5373     8.4519   994.0465 H        310 DG      0.0000
    345 H2'       -1.5168     6.4736   993.1720 H        310 DG      0.0000
    346 H2''       0.0811     6.4276   992.3560 H        310 DG      0.0000
    347 H1'        0.9968     4.9383   993.9333 H        310 DG      0.0000
    348 H8        -2.8848     4.9805   993.7613 H        310 DG      0.0000
    349 H1        -0.1931    -0.8469   993.3406 H        310 DG      0.0000
    350 H21        1.9655    -0.6779   993.6144 H        310 DG      0.0000
    351 H22        2.7562     0.8576   993.8926 H        310 DG      0.0000
    352 P          1.9239     7.7046   992.4265 P.3      309 DT      0.0000
    353 OP1        3.0571     8.6145   992.0356 O.co2    309 DT      0.0000
    354 OP2        0.6700     8.0763   991.7260 O.co2    309 DT      0.0000
    355 O5'        2.3779     6.1736   992.2956 O.3      309 DT      0.0000
    356 C5'        3.7861     5.8784   992.5633 C.3      309 DT      0.0000
    357 C4'        4.1641     4.6238   991.8062 C.3      309 DT      0.0000
    358 O4'        3.1251     3.6615   991.7789 O.3      309 DT      0.0000
    359 C3'        4.5194     4.8896   990.3515 C.3      309 DT      0.0000
    360 O3'        5.6119     4.0853   989.8564 O.3      309 DT      0.0000
    361 C2'        3.2253     4.5884   989.6287 C.3      309 DT      0.0000
    362 C1'        2.7873     3.3587   990.4068 C.3      309 DT      0.0000
    363 N1         1.3271     3.2594   990.2555 N.am     309 DT      0.0000
    364 C2         0.7836     1.9833   990.3622 C.2      309 DT      0.0000
    365 O2         1.5087     1.0126   990.5520 O.2      309 DT      0.0000
    366 N3        -0.5734     1.8709   990.2421 N.am     309 DT      0.0000
    367 C4        -1.3701     2.9548   990.0245 C.2      309 DT      0.0000
    368 O4        -2.6253     2.7506   989.9269 O.2      309 DT      0.0000
    369 C5        -0.7846     4.2486   989.9181 C.2      309 DT      0.0000
    370 C7        -1.6541     5.4516   989.6892 C.3      309 DT      0.0000
    371 C6         0.5413     4.3525   990.0399 C.2      309 DT      0.0000
    372 H5'        4.4063     6.7104   992.2295 H        309 DT      0.0000
    373 H5''       3.9306     5.7192   993.6319 H        309 DT      0.0000
    374 H4'        5.0308     4.1779   992.2942 H        309 DT      0.0000
    375 H3'        4.7640     5.9445   990.2275 H        309 DT      0.0000
    376 H2'        2.5085     5.4045   989.7202 H        309 DT      0.0000
    377 H2''       3.4091     4.3445   988.5823 H        309 DT      0.0000
    378 H1'        3.2918     2.4582   990.0561 H        309 DT      0.0000
    379 H3        -0.9981     0.9576   990.3167 H        309 DT      0.0000
    380 H6         1.0023     5.3263   989.9657 H        309 DT      0.0000
    381 H71       -2.6961     5.1395   989.6205 H        309 DT      0.0000
    382 H72       -1.5374     6.1473   990.5200 H        309 DT      0.0000
    383 H73       -1.3595     5.9415   988.7610 H        309 DT      0.0000
    384 P          6.6596     5.1105   989.0780 P.3      308 DG      0.0000
    385 OP1        7.7715     5.5970   989.9493 O.co2    308 DG      0.0000
    386 OP2        5.6845     6.1535   988.6725 O.co2    308 DG      0.0000
    387 O5'        7.2902     4.1162   987.9972 O.3      308 DG      0.0000
    388 C5'        8.3156     3.1821   988.4207 C.3      308 DG      0.0000
    389 C4'        7.8078     1.8173   987.9729 C.3      308 DG      0.0000
    390 O4'        6.4243     1.7130   988.2436 O.3      308 DG      0.0000
    391 C3'        8.0069     1.5275   986.4852 C.3      308 DG      0.0000
    392 O3'        8.7408     0.3342   986.2767 O.3      308 DG      0.0000
    393 C2'        6.6024     1.5407   985.9085 C.3      308 DG      0.0000
    394 C1'        5.7510     1.1537   987.0946 C.3      308 DG      0.0000
    395 N9         4.3991     1.7054   986.9711 N.ar     308 DG      0.0000
    396 C8         4.0268     3.0102   986.8122 C.ar     308 DG      0.0000
    397 N7         2.7298     3.1831   986.7342 N.ar     308 DG      0.0000
    398 C5         2.2088     1.8998   986.8717 C.ar     308 DG      0.0000
    399 C6         0.8741     1.4154   986.8811 C.2      308 DG      0.0000
    400 O6        -0.1545     2.0767   986.7821 O.2      308 DG      0.0000
    401 N1         0.7616     0.0623   987.0301 N.am     308 DG      0.0000
    402 C2         1.8605    -0.7515   987.1630 C.2      308 DG      0.0000
    403 N2         1.6079    -2.0537   987.2986 N.pl3    308 DG      0.0000
    404 N3         3.1393    -0.3615   987.1673 N.2      308 DG      0.0000
    405 C4         3.2349     0.9815   987.0166 C.ar     308 DG      0.0000
    406 H5'        9.2671     3.4136   987.9419 H        308 DG      0.0000
    407 H5''       8.4234     3.2070   989.5050 H        308 DG      0.0000
    408 H4'        8.3295     1.0508   988.5459 H        308 DG      0.0000
    409 H3'        8.5653     2.3544   986.0466 H        308 DG      0.0000
    410 H2'        6.3376     2.5326   985.5421 H        308 DG      0.0000
    411 H2''       6.5086     0.8015   985.1129 H        308 DG      0.0000
    412 H1'        5.7043     0.0682   987.1817 H        308 DG      0.0000
    413 H8         4.7351     3.8235   986.7561 H        308 DG      0.0000
    414 H1        -0.1589    -0.3532   987.0430 H        308 DG      0.0000
    415 H21        0.6540    -2.3856   987.2996 H        308 DG      0.0000
    416 H22        2.3704    -2.7081   987.4004 H        308 DG      0.0000
    417 P          8.5318    -0.9708   985.4104 P.3      307 DA      0.0000
    418 OP1        9.0021    -2.2043   986.1918 O.co2    307 DA      0.0000
    419 OP2        9.3590    -0.7748   984.2177 O.co2    307 DA      0.0000
    420 O5'        6.9218    -1.1478   985.2356 O.3      307 DA      0.0000
    421 C5'        6.3226    -1.8443   986.3921 C.3      307 DA      0.0000
    422 C4'        5.7388    -3.1314   985.8642 C.3      307 DA      0.0000
    423 O4'        4.3543    -3.0424   985.6420 O.3      307 DA      0.0000
    424 C3'        6.3397    -3.5525   984.5238 C.3      307 DA      0.0000
    425 O3'        6.5757    -4.9382   984.4486 O.3      307 DA      0.0000
    426 C2'        5.3677    -2.9469   983.5272 C.3      307 DA      0.0000
    427 C1'        4.0600    -2.7871   984.2510 C.3      307 DA      0.0000
    428 N9         3.4728    -1.4553   984.0255 N.ar     307 DA      0.0000
    429 C8         4.1104    -0.2478   983.8392 C.ar     307 DA      0.0000
    430 N7         3.3009     0.7674   983.6433 N.ar     307 DA      0.0000
    431 C5         2.0402     0.1903   983.7301 C.ar     307 DA      0.0000
    432 C6         0.7455     0.7501   983.6245 C.ar     307 DA      0.0000
    433 N6         0.5143     2.0336   983.4120 N.pl3    307 DA      0.0000
    434 N1        -0.2948    -0.1198   983.7482 N.ar     307 DA      0.0000
    435 C2        -0.0857    -1.4508   983.9727 C.ar     307 DA      0.0000
    436 N3         1.1032    -2.0388   984.0886 N.ar     307 DA      0.0000
    437 C4         2.1291    -1.1642   983.9525 C.ar     307 DA      0.0000
    438 H5'        7.0864    -2.0566   987.1401 H        307 DA      0.0000
    439 H5''       5.5350    -1.2303   986.8287 H        307 DA      0.0000
    440 H4'        5.9242    -3.9215   986.5919 H        307 DA      0.0000
    441 H3'        7.2966    -3.0430   984.4106 H        307 DA      0.0000
    442 H2'        5.2453    -3.6093   982.6703 H        307 DA      0.0000
    443 H2''       5.7315    -1.9740   983.1966 H        307 DA      0.0000
    444 H1'        3.3635    -3.5451   983.8928 H        307 DA      0.0000
    445 H8         5.1854    -0.1452   983.8531 H        307 DA      0.0000
    446 H2        -0.9590    -2.0796   984.0640 H        307 DA      0.0000
    447 H61       -0.3404     2.4697   983.7274 H        307 DA      0.0000
    448 H62        1.2043     2.5882   982.9258 H        307 DA      0.0000
    449 P          6.3921    -5.9676   983.2640 P.3      306 DA      0.0000
    450 OP1        6.5371    -7.4277   983.7839 O.co2    306 DA      0.0000
    451 OP2        7.5226    -5.6696   982.3303 O.co2    306 DA      0.0000
    452 O5'        4.9040    -5.8464   982.7613 O.3      306 DA      0.0000
    453 C5'        3.9104    -6.7878   983.2171 C.3      306 DA      0.0000
    454 C4'        2.6162    -6.4385   982.5152 C.3      306 DA      0.0000
    455 O4'        2.3794    -5.0648   982.3944 O.3      306 DA      0.0000
    456 C3'        2.5094    -7.0236   981.1077 C.3      306 DA      0.0000
    457 O3'        1.4580    -8.0073   981.0762 O.3      306 DA      0.0000
    458 C2'        2.3810    -5.7930   980.2081 C.3      306 DA      0.0000
    459 C1'        1.7423    -4.7771   981.1059 C.3      306 DA      0.0000
    460 N9         2.0216    -3.3765   980.8063 N.ar     306 DA      0.0000
    461 C8         3.2354    -2.7504   980.6115 C.ar     306 DA      0.0000
    462 N7         3.1374    -1.4559   980.4061 N.ar     306 DA      0.0000
    463 C5         1.7813    -1.2037   980.4806 C.ar     306 DA      0.0000
    464 C6         1.0348    -0.0116   980.3472 C.ar     306 DA      0.0000
    465 N6         1.5764     1.1780   980.1040 N.pl3    306 DA      0.0000
    466 N1        -0.3217    -0.1521   980.4960 N.ar     306 DA      0.0000
    467 C2        -0.8981    -1.3430   980.7485 C.ar     306 DA      0.0000
    468 N3        -0.2582    -2.5080   980.8874 N.ar     306 DA      0.0000
    469 C4         1.0780    -2.3664   980.7402 C.ar     306 DA      0.0000
    470 H5'        4.2123    -7.8035   982.9620 H        306 DA      0.0000
    471 H5''       3.7827    -6.6988   984.2959 H        306 DA      0.0000
    472 H4'        1.8019    -6.8588   983.1053 H        306 DA      0.0000
    473 H3'        3.4500    -7.5217   980.8727 H        306 DA      0.0000
    474 H2'        3.3595    -5.4538   979.8682 H        306 DA      0.0000
    475 H2''       1.7354    -6.0088   979.3568 H        306 DA      0.0000
    476 H1'        0.6672    -4.9458   981.1670 H        306 DA      0.0000
    477 H8         4.1790    -3.2755   980.6265 H        306 DA      0.0000
    478 H2        -1.9735    -1.3577   980.8476 H        306 DA      0.0000
    479 H61        1.0249     1.9715   980.3980 H        306 DA      0.0000
    480 H62        2.4761     1.2811   979.6567 H        306 DA      0.0000
    481 P          1.1386    -8.7635   979.6912 P.3      305 DT      0.0000
    482 OP1        0.2774    -9.9875   979.7494 O.co2    305 DT      0.0000
    483 OP2        2.5261    -8.9800   979.1786 O.co2    305 DT      0.0000
    484 O5'        0.2096    -7.5718   978.9881 O.3      305 DT      0.0000
    485 C5'       -0.6765    -7.0054   980.0004 C.3      305 DT      0.0000
    486 C4'       -1.8428    -6.3657   979.3175 C.3      305 DT      0.0000
    487 O4'       -1.6975    -4.9887   979.1371 O.3      305 DT      0.0000
    488 C3'       -2.1696    -6.9600   977.9562 C.3      305 DT      0.0000
    489 O3'       -3.5762    -7.0161   977.6889 O.3      305 DT      0.0000
    490 C2'       -1.3736    -5.9997   977.0629 C.3      305 DT      0.0000
    491 C1'       -1.6783    -4.6622   977.7029 C.3      305 DT      0.0000
    492 N1        -0.5861    -3.6978   977.4729 N.am     305 DT      0.0000
    493 C2        -0.9278    -2.3624   977.3513 C.2      305 DT      0.0000
    494 O2        -2.1047    -2.0001   977.3881 O.2      305 DT      0.0000
    495 N3         0.0820    -1.4540   977.1839 N.am     305 DT      0.0000
    496 C4         1.3879    -1.8309   977.1354 C.2      305 DT      0.0000
    497 O4         2.2547    -0.9254   976.9499 O.2      305 DT      0.0000
    498 C5         1.7191    -3.2069   977.2838 C.2      305 DT      0.0000
    499 C7         3.1581    -3.6623   977.2317 C.3      305 DT      0.0000
    500 C6         0.7220    -4.0808   977.4568 C.2      305 DT      0.0000
    501 H5'       -1.0287    -7.7965   980.6625 H        305 DT      0.0000
    502 H5''      -0.1370    -6.2567   980.5805 H        305 DT      0.0000
    503 H4'       -2.7140    -6.5182   979.9545 H        305 DT      0.0000
    504 H3'       -1.7448    -7.9612   977.8842 H        305 DT      0.0000
    505 H2'       -0.3067    -6.2208   977.0935 H        305 DT      0.0000
    506 H2''      -1.7442    -6.0300   976.0383 H        305 DT      0.0000
    507 H1'       -2.6380    -4.2676   977.3689 H        305 DT      0.0000
    508 H3        -0.1493    -0.4749   977.0938 H        305 DT      0.0000
    509 H6         0.9612    -5.1258   977.5882 H        305 DT      0.0000
    510 H71        3.3927    -4.0124   976.2265 H        305 DT      0.0000
    511 H72        3.3079    -4.4743   977.9432 H        305 DT      0.0000
    512 H73        3.8124    -2.8291   977.4882 H        305 DT      0.0000
    513 P         -3.9924    -7.5465   976.1990 P.3      304 DT      0.0000
    514 OP1       -4.7207    -8.8838   976.3470 O.co2    304 DT      0.0000
    515 OP2       -2.6661    -7.7648   975.5292 O.co2    304 DT      0.0000
    516 O5'       -4.8862    -6.4609   975.5470 O.3      304 DT      0.0000
    517 C5'       -5.7322    -5.5904   976.2984 C.3      304 DT      0.0000
    518 C4'       -5.8620    -4.3024   975.5504 C.3      304 DT      0.0000
    519 O4'       -4.7520    -3.4477   975.4934 O.3      304 DT      0.0000
    520 C3'       -6.3412    -4.3751   974.0843 C.3      304 DT      0.0000
    521 O3'       -7.1147    -3.1760   973.9806 O.3      304 DT      0.0000
    522 C2'       -5.0142    -4.2728   973.3206 C.3      304 DT      0.0000
    523 C1'       -4.4425    -3.1038   974.0963 C.3      304 DT      0.0000
    524 N1        -2.9932    -2.9132   973.9901 N.am     304 DT      0.0000
    525 C2        -2.5611    -1.5801   973.9895 C.2      304 DT      0.0000
    526 O2        -3.3685    -0.6495   974.0326 O.2      304 DT      0.0000
    527 N3        -1.2141    -1.3640   973.9361 N.am     304 DT      0.0000
    528 C4        -0.3057    -2.3787   973.8763 C.2      304 DT      0.0000
    529 O4         0.9235    -2.0745   973.8139 O.2      304 DT      0.0000
    530 C5        -0.7714    -3.7218   973.8846 C.2      304 DT      0.0000
    531 C7         0.2269    -4.8590   973.8231 C.3      304 DT      0.0000
    532 C6        -2.0898    -3.9285   973.9510 C.2      304 DT      0.0000
    533 H5'       -6.7147    -6.0462   976.4206 H        304 DT      0.0000
    534 H5''      -5.2900    -5.4035   977.2769 H        304 DT      0.0000
    535 H4'       -6.6322    -3.7394   976.0776 H        304 DT      0.0000
    536 H3'       -6.9062    -5.2787   973.8556 H        304 DT      0.0000
    537 H2'       -5.1579    -4.0419   972.2650 H        304 DT      0.0000
    538 H2''      -4.4100    -5.1703   973.4522 H        304 DT      0.0000
    539 H1'       -4.9589    -2.1852   973.8173 H        304 DT      0.0000
    540 H3        -0.8764    -0.4121   973.9409 H        304 DT      0.0000
    541 H6        -2.4533    -4.9452   973.9747 H        304 DT      0.0000
    542 H71        1.2376    -4.4537   973.7743 H        304 DT      0.0000
    543 H72        0.0348    -5.4632   972.9365 H        304 DT      0.0000
    544 H73        0.1267    -5.4789   974.7141 H        304 DT      0.0000
    545 P         -8.0894    -2.7930   972.8343 P.3      303 DC      0.0000
    546 OP1       -9.4127    -2.3261   973.4435 O.co2    303 DC      0.0000
    547 OP2       -8.3116    -4.0495   972.0525 O.co2    303 DC      0.0000
    548 O5'       -7.2537    -1.6060   972.0949 O.3      303 DC      0.0000
    549 C5'       -7.2173    -0.3328   972.8194 C.3      303 DC      0.0000
    550 C4'       -7.2089     0.7472   971.7689 C.3      303 DC      0.0000
    551 O4'       -5.9134     1.2429   971.5236 O.3      303 DC      0.0000
    552 C3'       -7.7634     0.3342   970.4045 C.3      303 DC      0.0000
    553 O3'       -8.4381     1.3756   969.6952 O.3      303 DC      0.0000
    554 C2'       -6.4858    -0.1688   969.7184 C.3      303 DC      0.0000
    555 C1'       -5.4226     0.7820   970.2650 C.3      303 DC      0.0000
    556 N1        -4.1527     0.0275   970.3828 N.am     303 DC      0.0000
    557 C2        -2.9734     0.7708   970.4000 C.2      303 DC      0.0000
    558 O2        -2.9947     2.0074   970.3313 O.2      303 DC      0.0000
    559 N3        -1.7976     0.0777   970.5032 N.2      303 DC      0.0000
    560 C4        -1.7625    -1.2787   970.5740 C.2      303 DC      0.0000
    561 N4        -0.5905    -1.9094   970.6759 N.pl3    303 DC      0.0000
    562 C5        -2.9808    -2.0133   970.5489 C.2      303 DC      0.0000
    563 C6        -4.1354    -1.3316   970.4553 C.2      303 DC      0.0000
    564 H5'       -8.0970    -0.2346   973.4554 H        303 DC      0.0000
    565 H5''      -6.3118    -0.2729   973.4233 H        303 DC      0.0000
    566 H4'       -7.8163     1.5737   972.1377 H        303 DC      0.0000
    567 H3'       -8.4471    -0.5039   970.5387 H        303 DC      0.0000
    568 H2'       -6.5642    -0.0909   968.6340 H        303 DC      0.0000
    569 H2''      -6.2705    -1.1955   970.0143 H        303 DC      0.0000
    570 H1'       -5.2928     1.6244   969.5856 H        303 DC      0.0000
    571 H5        -2.9779    -3.0919   970.6036 H        303 DC      0.0000
    572 H6        -5.0693    -1.8738   970.4372 H        303 DC      0.0000
    573 H41        0.2685    -1.3785   970.6966 H        303 DC      0.0000
    574 H42       -0.5627    -2.9174   970.7323 H        303 DC      0.0000
    575 P         -8.4093     1.6077   968.0632 P.3      302 DA      0.0000
    576 OP1       -9.6411     2.3959   967.6737 O.co2    302 DA      0.0000
    577 OP2       -8.3401     0.2347   967.4931 O.co2    302 DA      0.0000
    578 O5'       -7.1375     2.5583   967.8977 O.3      302 DA      0.0000
    579 C5'       -7.2555     3.9588   968.3631 C.3      302 DA      0.0000
    580 C4'       -6.2351     4.6638   967.4858 C.3      302 DA      0.0000
    581 O4'       -4.9260     4.1451   967.7532 O.3      302 DA      0.0000
    582 C3'       -6.4494     4.4196   965.9814 C.3      302 DA      0.0000
    583 O3'       -5.7436     5.3641   965.1924 O.3      302 DA      0.0000
    584 C2'       -5.6955     3.0902   965.7940 C.3      302 DA      0.0000
    585 C1'       -4.4198     3.5543   966.5486 C.3      302 DA      0.0000
    586 N9        -3.6203     2.3421   966.6940 N.ar     302 DA      0.0000
    587 C8        -4.0957     1.0518   966.7669 C.ar     302 DA      0.0000
    588 N7        -3.1486     0.1549   966.8815 N.ar     302 DA      0.0000
    589 C5        -1.9682     0.9194   966.8751 C.ar     302 DA      0.0000
    590 C6        -0.6045     0.5291   966.9751 C.ar     302 DA      0.0000
    591 N6        -0.2015    -0.7389   967.0979 N.pl3    302 DA      0.0000
    592 N1         0.2812     1.5637   966.9399 N.ar     302 DA      0.0000
    593 C2        -0.1274     2.8507   966.8211 C.ar     302 DA      0.0000
    594 N3        -1.3870     3.2870   966.7296 N.ar     302 DA      0.0000
    595 C4        -2.2515     2.2577   966.7571 C.ar     302 DA      0.0000
    596 H5'       -8.2594     4.3492   968.1964 H        302 DA      0.0000
    597 H5''      -6.9805     4.0395   969.4147 H        302 DA      0.0000
    598 H4'       -6.2538     5.7344   967.6898 H        302 DA      0.0000
    599 H3'       -7.5031     4.3485   965.7118 H        302 DA      0.0000
    600 H2'       -6.1921     2.2478   966.2756 H        302 DA      0.0000
    601 H2''      -5.4903     2.8887   964.7426 H        302 DA      0.0000
    602 H1'       -3.8800     4.2962   965.9602 H        302 DA      0.0000
    603 H8        -5.1463     0.8041   966.7329 H        302 DA      0.0000
    604 H2         0.6471     3.6030   966.7978 H        302 DA      0.0000
    605 H61       -0.8819    -1.4849   967.1227 H        302 DA      0.0000
    606 H62        0.7835    -0.9514   967.1660 H        302 DA      0.0000
    607 P         -6.4840     6.1837   964.0515 P.3      301 DC      0.0000
    608 OP1       -7.1065     7.3296   964.8317 O.co2    301 DC      0.0000
    609 OP2       -7.4721     5.3776   963.3259 O.co2    301 DC      0.0000
    610 O5'       -5.2145     6.5586   963.0756 O.3      301 DC      0.0000
    611 C5'       -4.0623     7.2000   963.7446 C.3      301 DC      0.0000
    612 C4'       -2.7964     6.6995   963.1006 C.3      301 DC      0.0000
    613 O4'       -2.2427     5.5547   963.7377 O.3      301 DC      0.0000
    614 C3'       -2.9872     6.3175   961.6228 C.3      301 DC      0.0000
    615 O3'       -1.8447     6.5602   960.8115 O.3      301 DC      0.0000
    616 C2'       -3.1775     4.7742   961.7884 C.3      301 DC      0.0000
    617 C1'       -1.8919     4.6334   962.6840 C.3      301 DC      0.0000
    618 N1        -1.6970     3.2271   962.9219 N.am     301 DC      0.0000
    619 C2        -0.4242     2.7811   963.2390 C.2      301 DC      0.0000
    620 O2         0.6245     3.4203   963.3795 O.2      301 DC      0.0000
    621 N3        -0.2452     1.4401   963.4372 N.2      301 DC      0.0000
    622 C4        -1.2745     0.5468   963.3213 C.2      301 DC      0.0000
    623 N4        -1.0531    -0.7593   963.5373 N.pl3    301 DC      0.0000
    624 C5        -2.5748     1.0194   962.9916 C.2      301 DC      0.0000
    625 C6        -2.7247     2.3352   962.7999 C.2      301 DC      0.0000
    626 H5'       -4.1283     8.2823   963.6331 H        301 DC      0.0000
    627 H5''      -4.0622     6.9402   964.8032 H        301 DC      0.0000
    628 H4'       -2.0575     7.4994   963.1473 H        301 DC      0.0000
    629 H3'       -3.8784     6.7849   961.2037 H        301 DC      0.0000
    630 H2'       -4.0982     4.5037   962.3055 H        301 DC      0.0000
    631 H2''      -3.0730     4.2468   960.8402 H        301 DC      0.0000
    632 H1'       -1.0330     5.0252   962.1391 H        301 DC      0.0000
    633 H5        -3.4103     0.3412   962.8995 H        301 DC      0.0000
    634 H6        -3.7030     2.7092   962.5367 H        301 DC      0.0000
    635 H41       -0.1266    -1.0814   963.7778 H        301 DC      0.0000
    636 H42       -1.8130    -1.4200   963.4594 H        301 DC      0.0000
    637 P          7.5649    -6.5692   997.4106 P.3      311 DG      0.0000
    638 OP1        8.0879    -7.9577   997.4091 O.co2    311 DG      0.0000
    639 OP2        6.4509    -6.5164   998.4663 O.co2    311 DG      0.0000
    640 O5'        8.6296    -5.4003   997.5890 O.3      311 DG      0.0000
    641 C5'        9.1959    -4.5270   996.5890 C.3      311 DG      0.0000
    642 C4'        9.0801    -3.1017   997.0878 C.3      311 DG      0.0000
    643 O4'        7.8802    -2.4886   996.6687 O.3      311 DG      0.0000
    644 C3'        9.1902    -2.8619   998.5800 C.3      311 DG      0.0000
    645 O3'       10.2166    -1.8819   998.8920 O.3      311 DG      0.0000
    646 C2'        7.7989    -2.4292   999.0019 C.3      311 DG      0.0000
    647 C1'        7.2207    -1.8227   997.7462 C.3      311 DG      0.0000
    648 N9         5.7598    -2.0180   997.7172 N.ar     311 DG      0.0000
    649 C8         5.0277    -3.1591   997.9461 C.ar     311 DG      0.0000
    650 N7         3.7279    -2.9898   997.8564 N.ar     311 DG      0.0000
    651 C5         3.5907    -1.6409   997.5394 C.ar     311 DG      0.0000
    652 C6         2.4469    -0.8360   997.3134 C.2      311 DG      0.0000
    653 O6         1.2624    -1.1716   997.3347 O.2      311 DG      0.0000
    654 N1         2.7056     0.4775   997.0319 N.am     311 DG      0.0000
    655 C2         3.9038     0.9640   996.9713 C.2      311 DG      0.0000
    656 N2         3.8669     2.2049   996.6745 N.pl3    311 DG      0.0000
    657 N3         5.0904     0.2540   997.1800 N.2      311 DG      0.0000
    658 C4         4.8289    -1.0325   997.4526 C.ar     311 DG      0.0000
    659 H5'       10.2446    -4.7785   996.4303 H        311 DG      0.0000
    660 H5''       8.6468    -4.6347   995.6537 H        311 DG      0.0000
    661 H4'        9.8927    -2.5434   996.6231 H        311 DG      0.0000
    662 H3'        9.4349    -3.8023   999.0740 H        311 DG      0.0000
    663 H2'        7.2077    -3.2845   999.3289 H        311 DG      0.0000
    664 H2''       7.8567    -1.6819   999.7934 H        311 DG      0.0000
    665 H1'        7.4492    -0.7574   997.7143 H        311 DG      0.0000
    666 H8         5.4814    -4.1112   998.1792 H        311 DG      0.0000
    667 H1         1.9254     1.0965   996.8635 H        311 DG      0.0000
    668 H21        2.9786     2.6634   996.5301 H        311 DG      0.0000
    669 H22        4.7259     2.7283   996.5840 H        311 DG      0.0000
    670 P         10.3632    -1.2259  1000.3205 P.3      312 DT      0.0000
    671 OP1       11.7691    -1.0467  1000.8322 O.co2    312 DT      0.0000
    672 OP2        9.7461    -2.2961  1001.2392 O.co2    312 DT      0.0000
    673 O5'        9.4735     0.0431  1000.3491 O.3      312 DT      0.0000
    674 C5'       10.0044     1.3891  1000.2051 C.3      312 DT      0.0000
    675 C4'        8.7869     2.2879  1000.2626 C.3      312 DT      0.0000
    676 O4'        7.5938     1.5873   999.9875 O.3      312 DT      0.0000
    677 C3'        8.5279     2.9829  1001.5754 C.3      312 DT      0.0000
    678 O3'        8.6768     4.3979  1001.3872 O.3      312 DT      0.0000
    679 C2'        7.0970     2.6157  1001.9676 C.3      312 DT      0.0000
    680 C1'        6.5024     2.3218  1000.6149 C.3      312 DT      0.0000
    681 N1         5.3617     1.4108  1000.7115 N.am     312 DT      0.0000
    682 C2         4.1148     1.9389  1000.5136 C.2      312 DT      0.0000
    683 O2         3.9331     3.1307  1000.2754 O.2      312 DT      0.0000
    684 N3         3.0532     1.0784  1000.5946 N.am     312 DT      0.0000
    685 C4         3.1951    -0.2418  1000.8505 C.2      312 DT      0.0000
    686 O4         2.1271    -0.9067  1000.8958 O.2      312 DT      0.0000
    687 C5         4.5081    -0.7771  1001.0502 C.2      312 DT      0.0000
    688 C7         4.7085    -2.2311  1001.3301 C.3      312 DT      0.0000
    689 C6         5.5405     0.0719  1000.9687 C.2      312 DT      0.0000
    690 H5'       10.6921     1.6204  1001.0186 H        312 DT      0.0000
    691 H5''      10.5073     1.4957   999.2439 H        312 DT      0.0000
    692 H4'        8.9048     3.0557   999.4981 H        312 DT      0.0000
    693 H3'        9.2276     2.6289  1002.3325 H        312 DT      0.0000
    694 H2'        7.0708     1.7402  1002.6164 H        312 DT      0.0000
    695 H2''       6.5943     3.4614  1002.4368 H        312 DT      0.0000
    696 H1'        6.2546     3.2324  1000.0695 H        312 DT      0.0000
    697 H3         2.1226     1.4460  1000.4571 H        312 DT      0.0000
    698 H6         6.5426    -0.3060  1001.1091 H        312 DT      0.0000
    699 H71        5.0505    -2.7321  1000.4246 H        312 DT      0.0000
    700 H72        3.7659    -2.6715  1001.6549 H        312 DT      0.0000
    701 H73        5.4550    -2.3504  1002.1154 H        312 DT      0.0000
    702 P          9.3496     5.1430  1002.6671 P.3      313 DG      0.0000
    703 OP1       10.1916     6.1920  1001.9520 O.co2    313 DG      0.0000
    704 OP2       10.1261     4.1748  1003.4206 O.co2    313 DG      0.0000
    705 O5'        7.9485     5.7172  1003.2766 O.3      313 DG      0.0000
    706 C5'        7.1474     6.3107  1002.1860 C.3      313 DG      0.0000
    707 C4'        5.7557     6.5198  1002.7061 C.3      313 DG      0.0000
    708 O4'        4.8537     5.4610  1002.5255 O.3      313 DG      0.0000
    709 C3'        5.7337     6.8702  1004.2141 C.3      313 DG      0.0000
    710 O3'        4.9953     8.1058  1004.3730 O.3      313 DG      0.0000
    711 C2'        5.1376     5.6412  1004.8667 C.3      313 DG      0.0000
    712 C1'        4.1841     5.1468  1003.7851 C.3      313 DG      0.0000
    713 N9         3.8765     3.7223  1003.9547 N.ar     313 DG      0.0000
    714 C8         4.7194     2.6991  1004.2909 C.ar     313 DG      0.0000
    715 N7         4.1435     1.5203  1004.3766 N.ar     313 DG      0.0000
    716 C5         2.8184     1.7958  1004.0466 C.ar     313 DG      0.0000
    717 C6         1.6846     0.9391  1003.9523 C.2      313 DG      0.0000
    718 O6         1.6310    -0.2848  1004.1446 O.2      313 DG      0.0000
    719 N1         0.5138     1.5801  1003.6172 N.am     313 DG      0.0000
    720 C2         0.4658     2.9223  1003.3934 C.2      313 DG      0.0000
    721 N2        -0.7568     3.3740  1003.0846 N.pl3    313 DG      0.0000
    722 N3         1.4956     3.7627  1003.4645 N.2      313 DG      0.0000
    723 C4         2.6403     3.1385  1003.7911 C.ar     313 DG      0.0000
    724 H5'        7.5789     7.2654  1001.8856 H        313 DG      0.0000
    725 H5''       7.1244     5.6317  1001.3336 H        313 DG      0.0000
    726 H4'        5.3453     7.3790  1002.1755 H        313 DG      0.0000
    727 H3'        6.7548     7.0099  1004.5689 H        313 DG      0.0000
    728 H2'        5.9040     4.8990  1005.0896 H        313 DG      0.0000
    729 H2''       4.5894     5.9118  1005.7691 H        313 DG      0.0000
    730 H1'        3.2573     5.7175  1003.8441 H        313 DG      0.0000
    731 H8         5.7738     2.8476  1004.4715 H        313 DG      0.0000
    732 H1        -0.3350     1.0389  1003.5349 H        313 DG      0.0000
    733 H21       -1.5347     2.7317  1003.0344 H        313 DG      0.0000
    734 H22       -0.9009     4.3569  1002.9020 H        313 DG      0.0000
    735 P          4.8741     8.8139  1005.7614 P.3      314 DA      0.0000
    736 OP1        5.9480     9.7904  1006.1168 O.co2    314 DA      0.0000
    737 OP2        5.0789     7.5373  1006.6571 O.co2    314 DA      0.0000
    738 O5'        3.3605     9.2161  1006.0105 O.3      314 DA      0.0000
    739 C5'        2.3794     9.4116  1004.9815 C.3      314 DA      0.0000
    740 C4'        1.1459     8.6603  1005.4558 C.3      314 DA      0.0000
    741 O4'        1.3539     7.2671  1005.3654 O.3      314 DA      0.0000
    742 C3'        0.6859     8.9489  1006.8848 C.3      314 DA      0.0000
    743 O3'       -0.7358     9.1877  1006.9371 O.3      314 DA      0.0000
    744 C2'        1.1061     7.6705  1007.6203 C.3      314 DA      0.0000
    745 C1'        0.7718     6.6502  1006.5427 C.3      314 DA      0.0000
    746 N9         1.3707     5.3313  1006.7711 N.ar     314 DA      0.0000
    747 C8         2.6742     4.9843  1006.9868 C.ar     314 DA      0.0000
    748 N7         2.8617     3.6938  1007.1518 N.ar     314 DA      0.0000
    749 C5         1.5925     3.1528  1007.0116 C.ar     314 DA      0.0000
    750 C6         1.1336     1.8182  1007.0596 C.ar     314 DA      0.0000
    751 N6         1.9155     0.7585  1007.2794 N.pl3    314 DA      0.0000
    752 N1        -0.2097     1.6569  1006.8698 N.ar     314 DA      0.0000
    753 C2        -1.0207     2.7179  1006.6520 C.ar     314 DA      0.0000
    754 N3        -0.6600     3.9993  1006.5938 N.ar     314 DA      0.0000
    755 C4         0.6650     4.1392  1006.7806 C.ar     314 DA      0.0000
    756 H5'        2.7334     9.0046  1004.0343 H        314 DA      0.0000
    757 H5''       2.1544    10.4727  1004.8737 H        314 DA      0.0000
    758 H4'        0.3249     8.9162  1004.7860 H        314 DA      0.0000
    759 H3'        1.2253     9.8069  1007.2863 H        314 DA      0.0000
    760 H2'        2.1681     7.6714  1007.8658 H        314 DA      0.0000
    761 H2''       0.4981     7.5131  1008.5112 H        314 DA      0.0000
    762 H1'       -0.3085     6.5606  1006.4282 H        314 DA      0.0000
    763 H8         3.4779     5.7051  1007.0189 H        314 DA      0.0000
    764 H2        -2.0699     2.5038  1006.5107 H        314 DA      0.0000
    765 H61        2.9208     0.7508  1007.1820 H        314 DA      0.0000
    766 H62        1.5353    -0.1613  1007.1078 H        314 DA      0.0000
    767 P         -1.4245    10.1474  1008.0786 P.3      315 DA      0.0000
    768 OP1       -2.1060    11.3162  1007.4115 O.co2    315 DA      0.0000
    769 OP2       -0.2517    10.4882  1008.9095 O.co2    315 DA      0.0000
    770 O5'       -2.6264     9.2426  1008.6094 O.3      315 DA      0.0000
    771 C5'       -3.7017     8.7962  1007.7851 C.3      315 DA      0.0000
    772 C4'       -4.1690     7.4489  1008.3074 C.3      315 DA      0.0000
    773 O4'       -3.1192     6.5236  1008.3356 O.3      315 DA      0.0000
    774 C3'       -4.8297     7.4191  1009.6747 C.3      315 DA      0.0000
    775 O3'       -6.1918     6.9992  1009.5969 O.3      315 DA      0.0000
    776 C2'       -3.9136     6.5101  1010.5034 C.3      315 DA      0.0000
    777 C1'       -3.2282     5.6552  1009.5096 C.3      315 DA      0.0000
    778 N9        -1.8737     5.1386  1009.7777 N.ar     315 DA      0.0000
    779 C8        -0.6796     5.8082  1009.8929 C.ar     315 DA      0.0000
    780 N7         0.3601     5.0262  1010.0622 N.ar     315 DA      0.0000
    781 C5        -0.1796     3.7444  1010.0252 C.ar     315 DA      0.0000
    782 C6         0.4217     2.4592  1010.1456 C.ar     315 DA      0.0000
    783 N6         1.7145     2.2284  1010.3372 N.pl3    315 DA      0.0000
    784 N1        -0.4358     1.3920  1010.0474 N.ar     315 DA      0.0000
    785 C2        -1.7728     1.5900  1009.8584 C.ar     315 DA      0.0000
    786 N3        -2.3968     2.7574  1009.7505 N.ar     315 DA      0.0000
    787 C4        -1.5420     3.7959  1009.8424 C.ar     315 DA      0.0000
    788 H5'       -3.3599     8.6945  1006.7550 H        315 DA      0.0000
    789 H5''      -4.5219     9.5126  1007.8310 H        315 DA      0.0000
    790 H4'       -4.9024     7.0718  1007.5947 H        315 DA      0.0000
    791 H3'       -4.7988     8.4231  1010.0979 H        315 DA      0.0000
    792 H2'       -3.1903     7.1026  1011.0637 H        315 DA      0.0000
    793 H2''      -4.5058     5.8973  1011.1830 H        315 DA      0.0000
    794 H1'       -3.8789     4.8161  1009.2636 H        315 DA      0.0000
    795 H8        -0.6034     6.8845  1009.8480 H        315 DA      0.0000
    796 H2        -2.3876     0.7048  1009.7892 H        315 DA      0.0000
    797 H61        2.3472     2.9450  1010.6634 H        315 DA      0.0000
    798 H62        2.0780     1.3048  1010.1504 H        315 DA      0.0000
    799 P         -7.3984     7.5228  1010.5531 P.3      316 DT      0.0000
    800 OP1       -8.6717     7.7816  1009.7558 O.co2    316 DT      0.0000
    801 OP2       -6.9566     8.6309  1011.3737 O.co2    316 DT      0.0000
    802 O5'       -7.7933     6.1491  1011.3668 O.3      316 DT      0.0000
    803 C5'       -7.7539     4.9959  1010.4217 C.3      316 DT      0.0000
    804 C4'       -7.0980     3.8904  1011.2094 C.3      316 DT      0.0000
    805 O4'       -5.7136     4.0761  1011.4014 O.3      316 DT      0.0000
    806 C3'       -7.6868     3.7567  1012.6260 C.3      316 DT      0.0000
    807 O3'       -8.6502     2.7195  1012.6277 O.3      316 DT      0.0000
    808 C2'       -6.4765     3.5100  1013.5232 C.3      316 DT      0.0000
    809 C1'       -5.4078     3.1821  1012.5586 C.3      316 DT      0.0000
    810 N1        -4.0112     3.4033  1012.8984 N.am     316 DT      0.0000
    811 C2        -3.2113     2.2732  1013.0363 C.2      316 DT      0.0000
    812 O2        -3.7113     1.1592  1012.9483 O.2      316 DT      0.0000
    813 N3        -1.8848     2.4502  1013.2903 N.am     316 DT      0.0000
    814 C4        -1.3151     3.6855  1013.4105 C.2      316 DT      0.0000
    815 O4        -0.0712     3.7674  1013.6657 O.2      316 DT      0.0000
    816 C5        -2.1544     4.8352  1013.2389 C.2      316 DT      0.0000
    817 C7        -1.5726     6.2189  1013.3264 C.3      316 DT      0.0000
    818 C6        -3.4617     4.6551  1012.9831 C.2      316 DT      0.0000
    819 H5'       -8.7614     4.7096  1010.1200 H        316 DT      0.0000
    820 H5''      -7.1533     5.2445  1009.5467 H        316 DT      0.0000
    821 H4'       -7.2514     2.9498  1010.6803 H        316 DT      0.0000
    822 H3'       -8.1635     4.6948  1012.9103 H        316 DT      0.0000
    823 H2'       -6.2259     4.4024  1014.0967 H        316 DT      0.0000
    824 H2''      -6.6608     2.6674  1014.1897 H        316 DT      0.0000
    825 H1'       -5.5298     2.1465  1012.2413 H        316 DT      0.0000
    826 H3        -1.2985     1.6344  1013.3940 H        316 DT      0.0000
    827 H6        -4.0944     5.5187  1012.8410 H        316 DT      0.0000
    828 H71       -0.5057     6.1522  1013.5394 H        316 DT      0.0000
    829 H72       -1.7220     6.7362  1012.3786 H        316 DT      0.0000
    830 H73       -2.0686     6.7718  1014.1242 H        316 DT      0.0000
    831 P         -9.6674     2.3318  1013.7343 P.3      317 DT      0.0000
    832 OP1      -10.8611     1.5540  1013.1222 O.co2    317 DT      0.0000
    833 OP2      -10.1033     3.6047  1014.3643 O.co2    317 DT      0.0000
    834 O5'       -8.9015     1.2333  1014.6166 O.3      317 DT      0.0000
    835 C5'       -8.7202    -0.0202  1013.9049 C.3      317 DT      0.0000
    836 C4'       -7.6484    -0.8026  1014.5810 C.3      317 DT      0.0000
    837 O4'       -6.3744    -0.1709  1014.5577 O.3      317 DT      0.0000
    838 C3'       -7.9443    -1.1477  1016.0476 C.3      317 DT      0.0000
    839 O3'       -7.6006    -2.4947  1016.3117 O.3      317 DT      0.0000
    840 C2'       -6.9646    -0.2033  1016.7840 C.3      317 DT      0.0000
    841 C1'       -5.7670    -0.4159  1015.8804 C.3      317 DT      0.0000
    842 N1        -4.7125     0.5355  1016.1781 N.am     317 DT      0.0000
    843 C2        -3.4058     0.0781  1016.2329 C.2      317 DT      0.0000
    844 O2        -3.1849    -1.1190  1016.0445 O.2      317 DT      0.0000
    845 N3        -2.4155     0.9814  1016.4988 N.am     317 DT      0.0000
    846 C4        -2.6741     2.3016  1016.7059 C.2      317 DT      0.0000
    847 O4        -1.7045     3.0817  1016.9292 O.2      317 DT      0.0000
    848 C5        -4.0216     2.7617  1016.6408 C.2      317 DT      0.0000
    849 C7        -4.3865     4.2024  1016.8507 C.3      317 DT      0.0000
    850 C6        -4.9818     1.8610  1016.3797 C.2      317 DT      0.0000
    851 H5'       -9.6512    -0.5869  1013.9173 H        317 DT      0.0000
    852 H5''      -8.4296     0.1832  1012.8741 H        317 DT      0.0000
    853 H4'       -7.5499    -1.7452  1014.0425 H        317 DT      0.0000
    854 H3'       -8.9811    -0.9372  1016.3101 H        317 DT      0.0000
    855 H2'       -7.3063     0.8316  1016.7827 H        317 DT      0.0000
    856 H2''      -6.7635    -0.5527  1017.7967 H        317 DT      0.0000
    857 H1'       -5.3999    -1.4394  1015.9560 H        317 DT      0.0000
    858 H3        -1.4596     0.6585  1016.5432 H        317 DT      0.0000
    859 H6        -6.0071     2.1962  1016.3266 H        317 DT      0.0000
    860 H71       -3.4844     4.7810  1017.0496 H        317 DT      0.0000
    861 H72       -4.8747     4.5874  1015.9554 H        317 DT      0.0000
    862 H73       -5.0658     4.2853  1017.6991 H        317 DT      0.0000
    863 P         -8.3188    -3.7507  1016.9196 P.3      318 DC      0.0000
    864 OP1       -8.6285    -4.7821  1015.8517 O.co2    318 DC      0.0000
    865 OP2       -9.4805    -3.2179  1017.6546 O.co2    318 DC      0.0000
    866 O5'       -7.0303    -4.3143  1017.7456 O.3      318 DC      0.0000
    867 C5'       -5.9695    -4.3852  1016.7234 C.3      318 DC      0.0000
    868 C4'       -4.7155    -4.8314  1017.4199 C.3      318 DC      0.0000
    869 O4'       -3.8352    -3.7791  1017.6668 O.3      318 DC      0.0000
    870 C3'       -4.9350    -5.6112  1018.7114 C.3      318 DC      0.0000
    871 O3'       -4.3065    -6.8837  1018.6317 O.3      318 DC      0.0000
    872 C2'       -4.4297    -4.6181  1019.7601 C.3      318 DC      0.0000
    873 C1'       -3.3910    -3.8314  1019.0637 C.3      318 DC      0.0000
    874 N1        -3.2979    -2.4063  1019.3958 N.am     318 DC      0.0000
    875 C2        -2.0163    -1.9236  1019.6516 C.2      318 DC      0.0000
    876 O2        -1.0358    -2.6742  1019.6561 O.2      318 DC      0.0000
    877 N3        -1.8877    -0.5843  1019.9254 N.2      318 DC      0.0000
    878 C4        -2.9657     0.2513  1019.9155 C.2      318 DC      0.0000
    879 N4        -2.7390     1.5307  1020.1924 N.pl3    318 DC      0.0000
    880 C5        -4.2567    -0.2493  1019.6375 C.2      318 DC      0.0000
    881 C6        -4.3667    -1.5673  1019.3727 C.2      318 DC      0.0000
    882 H5'       -6.2430    -5.1027  1015.9497 H        318 DC      0.0000
    883 H5''      -5.8167    -3.4017  1016.2792 H        318 DC      0.0000
    884 H4'       -4.2048    -5.5071  1016.7339 H        318 DC      0.0000
    885 H3'       -6.0056    -5.7576  1018.8546 H        318 DC      0.0000
    886 H2'       -5.2393    -3.9713  1020.0980 H        318 DC      0.0000
    887 H2''      -3.9951    -5.1513  1020.6057 H        318 DC      0.0000
    888 H1'       -2.4172    -4.3144  1019.1447 H        318 DC      0.0000
    889 H5        -5.1215     0.3976  1019.6369 H        318 DC      0.0000
    890 H6        -5.3396    -1.9706  1019.1337 H        318 DC      0.0000
    891 H41       -1.8003     1.8457  1020.3916 H        318 DC      0.0000
    892 H42       -3.5055     2.1883  1020.2037 H        318 DC      0.0000
    893 P         -4.6035    -8.1639  1019.5837 P.3      319 DA      0.0000
    894 OP1       -4.2331    -9.4020  1018.7900 O.co2    319 DA      0.0000
    895 OP2       -6.0395    -8.1462  1019.9293 O.co2    319 DA      0.0000
    896 O5'       -3.6178    -7.9308  1020.8807 O.3      319 DA      0.0000
    897 C5'       -2.2065    -7.6977  1020.5855 C.3      319 DA      0.0000
    898 C4'       -1.4523    -7.4041  1021.8408 C.3      319 DA      0.0000
    899 O4'       -1.1927    -6.0181  1022.0829 O.3      319 DA      0.0000
    900 C3'       -2.1401    -7.8381  1023.1460 C.3      319 DA      0.0000
    901 O3'       -1.1523    -7.9196  1024.1759 O.3      319 DA      0.0000
    902 C2'       -3.0595    -6.6192  1023.3606 C.3      319 DA      0.0000
    903 C1'       -1.9772    -5.5499  1023.1773 C.3      319 DA      0.0000
    904 N9        -2.6063    -4.2434  1023.0830 N.ar     319 DA      0.0000
    905 C8        -3.9237    -3.8956  1022.9672 C.ar     319 DA      0.0000
    906 N7        -4.1580    -2.5957  1022.9486 N.ar     319 DA      0.0000
    907 C5        -2.8891    -2.0442  1023.0561 C.ar     319 DA      0.0000
    908 C6        -2.4374    -0.7019  1023.0906 C.ar     319 DA      0.0000
    909 N6        -3.2244     0.3556  1023.0054 N.pl3    319 DA      0.0000
    910 N1        -1.0901    -0.5240  1023.2232 N.ar     319 DA      0.0000
    911 C2        -0.2371    -1.5924  1023.3034 C.ar     319 DA      0.0000
    912 N3        -0.5842    -2.8769  1023.2736 N.ar     319 DA      0.0000
    913 C4        -1.9250    -3.0346  1023.1505 C.ar     319 DA      0.0000
    914 H5'       -1.7869    -8.5865  1020.1143 H        319 DA      0.0000
    915 H5''      -2.1157    -6.8516  1019.9042 H        319 DA      0.0000
    916 H4'       -0.4930    -7.9182  1021.7819 H        319 DA      0.0000
    917 H3'       -2.7000    -8.7664  1023.0323 H        319 DA      0.0000
    918 H2'       -3.8467    -6.5511  1022.6098 H        319 DA      0.0000
    919 H2''      -3.4694    -6.6021  1024.3705 H        319 DA      0.0000
    920 H1'       -1.3475    -5.5548  1024.0670 H        319 DA      0.0000
    921 H8        -4.7135    -4.6288  1022.8962 H        319 DA      0.0000
    922 H2         0.8158    -1.3719  1023.3998 H        319 DA      0.0000
    923 H61       -3.0998     1.3416  1023.1854 H        319 DA      0.0000
    924 H62       -4.1566     0.1278  1022.6906 H        319 DA      0.0000
    925 P         -0.1972    -9.1958  1024.3164 P.3      320 DC      0.0000
    926 OP1       -0.1193   -10.0111  1023.0713 O.co2    320 DC      0.0000
    927 OP2       -0.8266    -9.9387  1025.4593 O.co2    320 DC      0.0000
    928 O5'        1.2260    -8.5565  1024.5996 O.3      320 DC      0.0000
    929 C5'        2.0620    -8.0577  1023.5118 C.3      320 DC      0.0000
    930 C4'        2.8558    -6.9519  1024.2168 C.3      320 DC      0.0000
    931 O4'        1.9506    -5.9185  1024.5288 O.3      320 DC      0.0000
    932 C3'        3.5010    -7.3968  1025.5267 C.3      320 DC      0.0000
    933 O3'        4.9106    -7.0835  1025.5946 O.3      320 DC      0.0000
    934 C2'        2.6692    -6.6919  1026.6089 C.3      320 DC      0.0000
    935 C1'        2.2519    -5.4494  1025.9327 C.3      320 DC      0.0000
    936 N1         1.0080    -4.7700  1026.2856 N.am     320 DC      0.0000
    937 C2         1.0654    -3.3778  1026.2587 C.2      320 DC      0.0000
    938 O2         2.1038    -2.7625  1026.0518 O.2      320 DC      0.0000
    939 N3        -0.0863    -2.6999  1026.5118 N.2      320 DC      0.0000
    940 C4        -1.2640    -3.3279  1026.7452 C.2      320 DC      0.0000
    941 N4        -2.3238    -2.5553  1026.9761 N.pl3    320 DC      0.0000
    942 C5        -1.3127    -4.7491  1026.7517 C.2      320 DC      0.0000
    943 C6        -0.1723    -5.4113  1026.5023 C.2      320 DC      0.0000
    944 H5'        2.7204    -8.8364  1023.1270 H        320 DC      0.0000
    945 H5''       1.4479    -7.6421  1022.7128 H        320 DC      0.0000
    946 H4'        3.6242    -6.5711  1023.5441 H        320 DC      0.0000
    947 H3'        3.3749    -8.4743  1025.6326 H        320 DC      0.0000
    948 H2'        1.8063    -7.2929  1026.8959 H        320 DC      0.0000
    949 H2''       3.2854    -6.4661  1027.4792 H        320 DC      0.0000
    950 H1'        3.0762    -4.7363  1025.9195 H        320 DC      0.0000
    951 H5        -2.2340    -5.2765  1026.9502 H        320 DC      0.0000
    952 H6        -0.1922    -6.4907  1026.4726 H        320 DC      0.0000
    953 H41       -2.2278    -1.5499  1026.9650 H        320 DC      0.0000
    954 H42       -3.2236    -2.9747  1027.1622 H        320 DC      0.0000
    955 P         -3.6601     7.6583  1028.5541 P.3      320 DG      0.0000
    956 OP1       -4.3601     8.9679  1028.7329 O.co2    320 DG      0.0000
    957 OP2       -4.2851     6.7912  1027.4693 O.co2    320 DG      0.0000
    958 O5'       -2.0491     7.9246  1028.3469 O.3      320 DG      0.0000
    959 C5'       -1.1266     7.6111  1029.4427 C.3      320 DG      0.0000
    960 C4'        0.1369     7.0344  1028.8084 C.3      320 DG      0.0000
    961 O4'        0.0857     5.6371  1028.7126 O.3      320 DG      0.0000
    962 C3'        0.4299     7.5504  1027.4020 C.3      320 DG      0.0000
    963 O3'        1.8303     7.7945  1027.1351 O.3      320 DG      0.0000
    964 C2'       -0.1304     6.4362  1026.4998 C.3      320 DG      0.0000
    965 C1'        0.2098     5.2054  1027.3236 C.3      320 DG      0.0000
    966 N9        -0.7328     4.1071  1027.0503 N.ar     320 DG      0.0000
    967 C8        -2.0964     4.1830  1026.8936 C.ar     320 DG      0.0000
    968 N7        -2.6708     3.0300  1026.6752 N.ar     320 DG      0.0000
    969 C5        -1.6151     2.1263  1026.7000 C.ar     320 DG      0.0000
    970 C6        -1.5853     0.7148  1026.5435 C.2      320 DG      0.0000
    971 O6        -2.5570    -0.0287  1026.3467 O.2      320 DG      0.0000
    972 N1        -0.3309     0.1630  1026.6304 N.am     320 DG      0.0000
    973 C2         0.7817     0.9053  1026.8511 C.2      320 DG      0.0000
    974 N2         1.9275     0.2325  1026.9145 N.pl3    320 DG      0.0000
    975 N3         0.8087     2.2343  1027.0088 N.2      320 DG      0.0000
    976 C4        -0.4224     2.7751  1026.9256 C.ar     320 DG      0.0000
    977 H5'       -0.8863     8.5161  1030.0004 H        320 DG      0.0000
    978 H5''      -1.5773     6.8743  1030.1076 H        320 DG      0.0000
    979 H4'        0.9819     7.2965  1029.4451 H        320 DG      0.0000
    980 H3'       -0.1334     8.4679  1027.2316 H        320 DG      0.0000
    981 H2'       -1.2062     6.5386  1026.3571 H        320 DG      0.0000
    982 H2''       0.3877     6.4164  1025.5410 H        320 DG      0.0000
    983 H1'        1.2313     4.8851  1027.1183 H        320 DG      0.0000
    984 H8        -2.6439     5.1125  1026.9464 H        320 DG      0.0000
    985 H1        -0.2333    -0.8368  1026.5256 H        320 DG      0.0000
    986 H21        1.9309    -0.7709  1026.7994 H        320 DG      0.0000
    987 H22        2.7940     0.7251  1027.0776 H        320 DG      0.0000
    988 P          2.2893     7.6040  1025.6116 P.3      319 DT      0.0000
    989 OP1        3.4646     8.4589  1025.2207 O.co2    319 DT      0.0000
    990 OP2        1.0546     8.0352  1024.9110 O.co2    319 DT      0.0000
    991 O5'        2.6697     6.0531  1025.4807 O.3      319 DT      0.0000
    992 C5'        4.0623     5.6911  1025.7483 C.3      319 DT      0.0000
    993 C4'        4.3800     4.4199  1024.9913 C.3      319 DT      0.0000
    994 O4'        3.2963     3.5082  1024.9640 O.3      319 DT      0.0000
    995 C3'        4.7476     4.6684  1023.5366 C.3      319 DT      0.0000
    996 O3'        5.8004     3.8129  1023.0414 O.3      319 DT      0.0000
    997 C2'        3.4405     4.4293  1022.8137 C.3      319 DT      0.0000
    998 C1'        2.9444     3.2219  1023.5918 C.3      319 DT      0.0000
    999 N1         1.4811     3.1924  1023.4405 N.am     319 DT      0.0000
   1000 C2         0.8773     1.9437  1023.5473 C.2      319 DT      0.0000
   1001 O2         1.5553     0.9395  1023.7370 O.2      319 DT      0.0000
   1002 N3        -0.4835     1.8961  1023.4271 N.am     319 DT      0.0000
   1003 C4        -1.2276     3.0168  1023.2095 C.2      319 DT      0.0000
   1004 O4        -2.4911     2.8727  1023.1120 O.2      319 DT      0.0000
   1005 C5        -0.5810     4.2812  1023.1031 C.2      319 DT      0.0000
   1006 C7        -1.3921     5.5243  1022.8742 C.3      319 DT      0.0000
   1007 C6         0.7483     4.3217  1023.2249 C.2      319 DT      0.0000
   1008 H5'        4.7214     6.4925  1025.4146 H        319 DT      0.0000
   1009 H5''       4.1990     5.5252  1026.8169 H        319 DT      0.0000
   1010 H4'        5.2244     3.9331  1025.4792 H        319 DT      0.0000
   1011 H3'        5.0422     5.7105  1023.4126 H        319 DT      0.0000
   1012 H2'        2.7635     5.2787  1022.9052 H        319 DT      0.0000
   1013 H2''       3.6125     4.1769  1021.7673 H        319 DT      0.0000
   1014 H1'        3.4053     2.2984  1023.2411 H        319 DT      0.0000
   1015 H3        -0.9512     1.0041  1023.5018 H        319 DT      0.0000
   1016 H6         1.2553     5.2724  1023.1508 H        319 DT      0.0000
   1017 H71       -2.4479     5.2623  1022.8055 H        319 DT      0.0000
   1018 H72       -1.2424     6.2137  1023.7051 H        319 DT      0.0000
   1019 H73       -1.0745     5.9996  1021.9460 H        319 DT      0.0000
   1020 P          6.8958     4.7870  1022.2631 P.3      318 DG      0.0000
   1021 OP1        8.0297     5.2199  1023.1343 O.co2    318 DG      0.0000
   1022 OP2        5.9716     5.8753  1021.8575 O.co2    318 DG      0.0000
   1023 O5'        7.4783     3.7637  1021.1822 O.3      318 DG      0.0000
   1024 C5'        8.4579     2.7818  1021.6057 C.3      318 DG      0.0000
   1025 C4'        7.8856     1.4427  1021.1580 C.3      318 DG      0.0000
   1026 O4'        6.4987     1.4045  1021.4287 O.3      318 DG      0.0000
   1027 C3'        8.0706     1.1438  1019.6702 C.3      318 DG      0.0000
   1028 O3'        8.7467    -0.0832  1019.4617 O.3      318 DG      0.0000
   1029 C2'        6.6683     1.2240  1019.0935 C.3      318 DG      0.0000
   1030 C1'        5.7995     0.8780  1020.2797 C.3      318 DG      0.0000
   1031 N9         4.4755     1.4936  1020.1561 N.ar     318 DG      0.0000
   1032 C8         4.1658     2.8147  1019.9972 C.ar     318 DG      0.0000
   1033 N7         2.8786     3.0492  1019.9192 N.ar     318 DG      0.0000
   1034 C5         2.2969     1.7922  1020.0567 C.ar     318 DG      0.0000
   1035 C6         0.9407     1.3721  1020.0662 C.2      318 DG      0.0000
   1036 O6        -0.0552     2.0817  1019.9671 O.2      318 DG      0.0000
   1037 N1         0.7637     0.0259  1020.2151 N.am     318 DG      0.0000
   1038 C2         1.8226    -0.8394  1020.3480 C.2      318 DG      0.0000
   1039 N2         1.5081    -2.1280  1020.4837 N.pl3    318 DG      0.0000
   1040 N3         3.1184    -0.5109  1020.3523 N.2      318 DG      0.0000
   1041 C4         3.2781     0.8261  1020.2016 C.ar     318 DG      0.0000
   1042 H5'        9.4194     2.9676  1021.1270 H        318 DG      0.0000
   1043 H5''       8.5668     2.8015  1022.6900 H        318 DG      0.0000
   1044 H4'        8.3702     0.6522  1021.7310 H        318 DG      0.0000
   1045 H3'        8.6679     1.9431  1019.2317 H        318 DG      0.0000
   1046 H2'        6.4512     2.2273  1018.7272 H        318 DG      0.0000
   1047 H2''       6.5394     0.4900  1018.2980 H        318 DG      0.0000
   1048 H1'        5.7010    -0.2040  1020.3667 H        318 DG      0.0000
   1049 H8         4.9121     3.5933  1019.9411 H        318 DG      0.0000
   1050 H1        -0.1755    -0.3452  1020.2280 H        318 DG      0.0000
   1051 H21        0.5394    -2.4141  1020.4847 H        318 DG      0.0000
   1052 H22        2.2385    -2.8181  1020.5855 H        318 DG      0.0000
   1053 P          8.4758    -1.3768  1018.5954 P.3      317 DA      0.0000
   1054 OP1        8.8867    -2.6312  1019.3768 O.co2    317 DA      0.0000
   1055 OP2        9.3114    -1.2204  1017.4027 O.co2    317 DA      0.0000
   1056 O5'        6.8591    -1.4768  1018.4206 O.3      317 DA      0.0000
   1057 C5'        6.2274    -2.1438  1019.5771 C.3      317 DA      0.0000
   1058 C4'        5.5829    -3.4016  1019.0493 C.3      317 DA      0.0000
   1059 O4'        4.2042    -3.2467  1018.8270 O.3      317 DA      0.0000
   1060 C3'        6.1630    -3.8510  1017.7088 C.3      317 DA      0.0000
   1061 O3'        6.3326    -5.2463  1017.6336 O.3      317 DA      0.0000
   1062 C2'        5.2210    -3.1996  1016.7122 C.3      317 DA      0.0000
   1063 C1'        3.9224    -2.9777  1017.4361 C.3      317 DA      0.0000
   1064 N9         3.3994    -1.6194  1017.2106 N.ar     317 DA      0.0000
   1065 C8         4.0939    -0.4437  1017.0242 C.ar     317 DA      0.0000
   1066 N7         3.3338     0.6091  1016.8283 N.ar     317 DA      0.0000
   1067 C5         2.0470     0.0927  1016.9152 C.ar     317 DA      0.0000
   1068 C6         0.7805     0.7136  1016.8095 C.ar     317 DA      0.0000
   1069 N6         0.6108     2.0067  1016.5970 N.pl3    317 DA      0.0000
   1070 N1        -0.3001    -0.1056  1016.9332 N.ar     317 DA      0.0000
   1071 C2        -0.1548    -1.4450  1017.1578 C.ar     317 DA      0.0000
   1072 N3         1.0047    -2.0891  1017.2736 N.ar     317 DA      0.0000
   1073 C4         2.0712    -1.2645  1017.1375 C.ar     317 DA      0.0000
   1074 H5'        6.9802    -2.3924  1020.3252 H        317 DA      0.0000
   1075 H5''       5.4700    -1.4929  1020.0138 H        317 DA      0.0000
   1076 H4'        5.7303    -4.1997  1019.7770 H        317 DA      0.0000
   1077 H3'        7.1431    -3.3876  1017.5957 H        317 DA      0.0000
   1078 H2'        5.0672    -3.8554  1015.8553 H        317 DA      0.0000
   1079 H2''       5.6308    -2.2452  1016.3817 H        317 DA      0.0000
   1080 H1'        3.1905    -3.7016  1017.0779 H        317 DA      0.0000
   1081 H8         5.1726    -0.3924  1017.0381 H        317 DA      0.0000
   1082 H2        -1.0571    -2.0314  1017.2490 H        317 DA      0.0000
   1083 H61       -0.2221     2.4832  1016.9125 H        317 DA      0.0000
   1084 H62        1.3264     2.5278  1016.1108 H        317 DA      0.0000
   1085 P          6.1001    -6.2658  1016.4490 P.3      316 DA      0.0000
   1086 OP1        6.1753    -7.7311  1016.9689 O.co2    316 DA      0.0000
   1087 OP2        7.2435    -6.0221  1015.5153 O.co2    316 DA      0.0000
   1088 O5'        4.6195    -6.0737  1015.9463 O.3      316 DA      0.0000
   1089 C5'        3.5821    -6.9666  1016.4021 C.3      316 DA      0.0000
   1090 C4'        2.3060    -6.5560  1015.7002 C.3      316 DA      0.0000
   1091 O4'        2.1350    -5.1726  1015.5795 O.3      316 DA      0.0000
   1092 C3'        2.1714    -7.1354  1014.2927 C.3      316 DA      0.0000
   1093 O3'        1.0743    -8.0678  1014.2612 O.3      316 DA      0.0000
   1094 C2'        2.1019    -5.9000  1013.3931 C.3      316 DA      0.0000
   1095 C1'        1.5124    -4.8547  1014.2909 C.3      316 DA      0.0000
   1096 N9         1.8582    -3.4691  1013.9913 N.ar     316 DA      0.0000
   1097 C8         3.1005    -2.9016  1013.7966 C.ar     316 DA      0.0000
   1098 N7         3.0643    -1.6040  1013.5911 N.ar     316 DA      0.0000
   1099 C5         1.7219    -1.2873  1013.6657 C.ar     316 DA      0.0000
   1100 C6         1.0330    -0.0609  1013.5322 C.ar     316 DA      0.0000
   1101 N6         1.6308     1.1015  1013.2890 N.pl3    316 DA      0.0000
   1102 N1        -0.3286    -0.1366  1013.6810 N.ar     316 DA      0.0000
   1103 C2        -0.9612    -1.2986  1013.9335 C.ar     316 DA      0.0000
   1104 N3        -0.3775    -2.4929  1014.0724 N.ar     316 DA      0.0000
   1105 C4         0.9639    -2.4151  1013.9252 C.ar     316 DA      0.0000
   1106 H5'        3.8351    -7.9956  1016.1470 H        316 DA      0.0000
   1107 H5''       3.4588    -6.8717  1017.4810 H        316 DA      0.0000
   1108 H4'        1.4726    -6.9370  1016.2903 H        316 DA      0.0000
   1109 H3'        3.0872    -7.6777  1014.0577 H        316 DA      0.0000
   1110 H2'        3.0955    -5.6078  1013.0532 H        316 DA      0.0000
   1111 H2''       1.4468    -6.0848  1012.5418 H        316 DA      0.0000
   1112 H1'        0.4304    -4.9720  1014.3520 H        316 DA      0.0000
   1113 H8         4.0180    -3.4711  1013.8115 H        316 DA      0.0000
   1114 H2        -2.0360    -1.2620  1014.0326 H        316 DA      0.0000
   1115 H61        1.1178     1.9204  1013.5830 H        316 DA      0.0000
   1116 H62        2.5344     1.1615  1012.8417 H        316 DA      0.0000
   1117 P          0.7192    -8.8079  1012.8763 P.3      315 DT      0.0000
   1118 OP1       -0.1994    -9.9894  1012.9344 O.co2    315 DT      0.0000
   1119 OP2        2.0948    -9.0903  1012.3636 O.co2    315 DT      0.0000
   1120 O5'       -0.1519    -7.5732  1012.1731 O.3      315 DT      0.0000
   1121 C5'       -1.0100    -6.9652  1013.1855 C.3      315 DT      0.0000
   1122 C4'       -2.1444    -6.2705  1012.5025 C.3      315 DT      0.0000
   1123 O4'       -1.9336    -4.9020  1012.3221 O.3      315 DT      0.0000
   1124 C3'       -2.4992    -6.8486  1011.1413 C.3      315 DT      0.0000
   1125 O3'       -3.9069    -6.8375  1010.8740 O.3      315 DT      0.0000
   1126 C2'       -1.6583    -5.9273  1010.2479 C.3      315 DT      0.0000
   1127 C1'       -1.8988    -4.5768  1010.8879 C.3      315 DT      0.0000
   1128 N1        -0.7619    -3.6656  1010.6580 N.am     315 DT      0.0000
   1129 C2        -1.0394    -2.3154  1010.5363 C.2      315 DT      0.0000
   1130 O2        -2.1978    -1.8974  1010.5731 O.2      315 DT      0.0000
   1131 N3         0.0125    -1.4562  1010.3689 N.am     315 DT      0.0000
   1132 C4         1.2989    -1.8951  1010.3204 C.2      315 DT      0.0000
   1133 O4         2.2080    -1.0319  1010.1349 O.2      315 DT      0.0000
   1134 C5         1.5642    -3.2853  1010.4688 C.2      315 DT      0.0000
   1135 C7         2.9798    -3.8088  1010.4167 C.3      315 DT      0.0000
   1136 C6         0.5265    -4.1106  1010.6418 C.2      315 DT      0.0000
   1137 H5'       -1.3995    -7.7385  1013.8475 H        315 DT      0.0000
   1138 H5''      -0.4354    -6.2430  1013.7655 H        315 DT      0.0000
   1139 H4'       -3.0219    -6.3813  1013.1395 H        315 DT      0.0000
   1140 H3'       -2.1226    -7.8689  1011.0692 H        315 DT      0.0000
   1141 H2'       -0.6032    -6.1991  1010.2785 H        315 DT      0.0000
   1142 H2''      -2.0299    -5.9399  1009.2233 H        315 DT      0.0000
   1143 H1'       -2.8386    -4.1369  1010.5540 H        315 DT      0.0000
   1144 H3        -0.1718    -0.4673  1010.2788 H        315 DT      0.0000
   1145 H6         0.7155    -5.1658  1010.7732 H        315 DT      0.0000
   1146 H71        3.1974    -4.1697  1009.4115 H        315 DT      0.0000
   1147 H72        3.0907    -4.6270  1011.1283 H        315 DT      0.0000
   1148 H73        3.6730    -3.0078  1010.6732 H        315 DT      0.0000
   1149 P         -4.3479    -7.3475  1009.3841 P.3      314 DT      0.0000
   1150 OP1       -5.1392    -8.6484  1009.5320 O.co2    314 DT      0.0000
   1151 OP2       -3.0335    -7.6288  1008.7142 O.co2    314 DT      0.0000
   1152 O5'       -5.1889    -6.2204  1008.7320 O.3      314 DT      0.0000
   1153 C5'       -5.9924    -5.3105  1009.4834 C.3      314 DT      0.0000
   1154 C4'       -6.0606    -4.0178  1008.7354 C.3      314 DT      0.0000
   1155 O4'       -4.9111    -3.2171  1008.6784 O.3      314 DT      0.0000
   1156 C3'       -6.5427    -4.0676  1007.2694 C.3      314 DT      0.0000
   1157 O3'       -7.2582    -2.8329  1007.1656 O.3      314 DT      0.0000
   1158 C2'       -5.2124    -4.0287  1006.5056 C.3      314 DT      0.0000
   1159 C1'       -4.5855    -2.8883  1007.2813 C.3      314 DT      0.0000
   1160 N1        -3.1287    -2.7670  1007.1752 N.am     314 DT      0.0000
   1161 C2        -2.6336    -1.4561  1007.1745 C.2      314 DT      0.0000
   1162 O2        -3.3957    -0.4881  1007.2176 O.2      314 DT      0.0000
   1163 N3        -1.2778    -1.3045  1007.1211 N.am     314 DT      0.0000
   1164 C4        -0.4188    -2.3614  1007.0614 C.2      314 DT      0.0000
   1165 O4         0.8235    -2.1162  1006.9990 O.2      314 DT      0.0000
   1166 C5        -0.9481    -3.6807  1007.0696 C.2      314 DT      0.0000
   1167 C7        -0.0052    -4.8643  1007.0082 C.3      314 DT      0.0000
   1168 C6        -2.2749    -3.8243  1007.1361 C.2      314 DT      0.0000
   1169 H5'       -6.9955    -5.7190  1009.6056 H        314 DT      0.0000
   1170 H5''      -5.5418    -5.1450  1010.4620 H        314 DT      0.0000
   1171 H4'       -6.8031    -3.4187  1009.2627 H        314 DT      0.0000
   1172 H3'       -7.1502    -4.9432  1007.0407 H        314 DT      0.0000
   1173 H2'       -5.3448    -3.7913  1005.4500 H        314 DT      0.0000
   1174 H2''      -4.6516    -4.9540  1006.6372 H        314 DT      0.0000
   1175 H1'       -5.0575    -1.9462  1007.0023 H        314 DT      0.0000
   1176 H3        -0.8951    -0.3698  1007.1260 H        314 DT      0.0000
   1177 H6        -2.6864    -4.8225  1007.1598 H        314 DT      0.0000
   1178 H71        1.0237    -4.5077  1006.9594 H        314 DT      0.0000
   1179 H72       -0.2259    -5.4587  1006.1216 H        314 DT      0.0000
   1180 H73       -0.1349    -5.4787  1007.8991 H        314 DT      0.0000
   1181 P         -8.2134    -2.4039  1006.0194 P.3      313 DC      0.0000
   1182 OP1       -9.5130    -1.8743  1006.6285 O.co2    313 DC      0.0000
   1183 OP2       -8.4953    -3.6484  1005.2375 O.co2    313 DC      0.0000
   1184 O5'       -7.3220    -1.2581  1005.2800 O.3      313 DC      0.0000
   1185 C5'       -7.2249     0.0120  1006.0045 C.3      313 DC      0.0000
   1186 C4'       -7.1650     1.0903  1004.9540 C.3      313 DC      0.0000
   1187 O4'       -5.8473     1.5236  1004.7087 O.3      313 DC      0.0000
   1188 C3'       -7.7386     0.7043  1003.5895 C.3      313 DC      0.0000
   1189 O3'       -8.3629     1.7766  1002.8803 O.3      313 DC      0.0000
   1190 C2'       -6.4865     0.1408  1002.9034 C.3      313 DC      0.0000
   1191 C1'       -5.3791     1.0398  1003.4500 C.3      313 DC      0.0000
   1192 N1        -4.1467     0.2256  1003.5678 N.am     313 DC      0.0000
   1193 C2        -2.9332     0.9118  1003.5850 C.2      313 DC      0.0000
   1194 O2        -2.8955     2.1480  1003.5164 O.2      313 DC      0.0000
   1195 N3        -1.7919     0.1634  1003.6883 N.2      313 DC      0.0000
   1196 C4        -1.8215    -1.1932  1003.7590 C.2      313 DC      0.0000
   1197 N4        -0.6809    -1.8790  1003.8610 N.pl3    313 DC      0.0000
   1198 C5        -3.0735    -1.8687  1003.7339 C.2      313 DC      0.0000
   1199 C6        -4.1942    -1.1328  1003.6403 C.2      313 DC      0.0000
   1200 H5'       -8.0990     0.1520  1006.6404 H        313 DC      0.0000
   1201 H5''      -6.3176     0.0286  1006.6084 H        313 DC      0.0000
   1202 H4'       -7.7323     1.9448  1005.3227 H        313 DC      0.0000
   1203 H3'       -8.4616    -0.1003  1003.7237 H        313 DC      0.0000
   1204 H2'       -6.5610     0.2224  1001.8190 H        313 DC      0.0000
   1205 H2''      -6.3204    -0.8950  1003.1994 H        313 DC      0.0000
   1206 H1'       -5.2093     1.8751  1002.7706 H        313 DC      0.0000
   1207 H5        -3.1220    -2.9463  1003.7887 H        313 DC      0.0000
   1208 H6        -5.1529    -1.6298  1003.6222 H        313 DC      0.0000
   1209 H41        0.2024    -1.3898  1003.8816 H        313 DC      0.0000
   1210 H42       -0.7012    -2.8872  1003.9173 H        313 DC      0.0000
   1211 P         -8.3230     2.0070  1001.2482 P.3      312 DA      0.0000
   1212 OP1       -9.5158     2.8531  1000.8588 O.co2    312 DA      0.0000
   1213 OP2       -8.3194     0.6324  1000.6782 O.co2    312 DA      0.0000
   1214 O5'       -7.0073     2.8959  1001.0827 O.3      312 DA      0.0000
   1215 C5'       -7.0584     4.3004  1001.5481 C.3      312 DA      0.0000
   1216 C4'       -6.0055     4.9560  1000.6709 C.3      312 DA      0.0000
   1217 O4'       -4.7226     4.3754  1000.9382 O.3      312 DA      0.0000
   1218 C3'       -6.2312     4.7223   999.1665 C.3      312 DA      0.0000
   1219 O3'       -5.4811     5.6320   998.3774 O.3      312 DA      0.0000
   1220 C2'       -5.5416     3.3584   998.9790 C.3      312 DA      0.0000
   1221 C1'       -4.2452     3.7611   999.7337 C.3      312 DA      0.0000
   1222 N9        -3.5045     2.5122   999.8791 N.ar     312 DA      0.0000
   1223 C8        -4.0408     1.2461   999.9519 C.ar     312 DA      0.0000
   1224 N7        -3.1376     0.3049  1000.0666 N.ar     312 DA      0.0000
   1225 C5        -1.9221     1.0123  1000.0602 C.ar     312 DA      0.0000
   1226 C6        -0.5786     0.5573  1000.1601 C.ar     312 DA      0.0000
   1227 N6        -0.2365    -0.7285  1000.2830 N.pl3    312 DA      0.0000
   1228 N1         0.3555     1.5485  1000.1250 N.ar     312 DA      0.0000
   1229 C2         0.0088     2.8536  1000.0061 C.ar     312 DA      0.0000
   1230 N3        -1.2286     3.3494   999.9146 N.ar     312 DA      0.0000
   1231 C4        -2.1412     2.3625   999.9422 C.ar     312 DA      0.0000
   1232 H5'       -8.0425     4.7383  1001.3814 H        312 DA      0.0000
   1233 H5''      -6.7799     4.3680  1002.5998 H        312 DA      0.0000
   1234 H4'       -5.9731     6.0263  1000.8748 H        312 DA      0.0000
   1235 H3'       -7.2871     4.7015   998.8968 H        312 DA      0.0000
   1236 H2'       -6.0778     2.5407   999.4606 H        312 DA      0.0000
   1237 H2''      -5.3462     3.1473   997.9276 H        312 DA      0.0000
   1238 H1'       -3.6706     4.4764   999.1452 H        312 DA      0.0000
   1239 H8        -5.1021     1.0487   999.9179 H        312 DA      0.0000
   1240 H2         0.8183     3.5680   999.9829 H        312 DA      0.0000
   1241 H61       -0.9517    -1.4411  1000.3077 H        312 DA      0.0000
   1242 H62        0.7372    -0.9877  1000.3511 H        312 DA      0.0000
   1243 P         -6.1816     6.4860   997.2365 P.3      311 DC      0.0000
   1244 OP1       -6.7487     7.6603   998.0168 O.co2    311 DC      0.0000
   1245 OP2       -7.2071     5.7279   996.5109 O.co2    311 DC      0.0000
   1246 O5'       -4.8957     6.7999   996.2606 O.3      311 DC      0.0000
   1247 C5'       -3.7141     7.3856   996.9296 C.3      311 DC      0.0000
   1248 C4'       -2.4736     6.8253   996.2856 C.3      311 DC      0.0000
   1249 O4'       -1.9751     5.6554   996.9228 O.3      311 DC      0.0000
   1250 C3'       -2.6824     6.4529   994.8078 C.3      311 DC      0.0000
   1251 O3'       -1.5296     6.6407   993.9965 O.3      311 DC      0.0000
   1252 C2'       -2.9461     4.9203   994.9734 C.3      311 DC      0.0000
   1253 C1'       -1.6687     4.7183   995.8690 C.3      311 DC      0.0000
   1254 N1        -1.5411     3.3043   996.1069 N.am     311 DC      0.0000
   1255 C2        -0.2910     2.7981   996.4241 C.2      311 DC      0.0000
   1256 O2         0.7870     3.3866   996.5645 O.2      311 DC      0.0000
   1257 N3        -0.1762     1.4501   996.6223 N.2      311 DC      0.0000
   1258 C4        -1.2469     0.6070   996.5063 C.2      311 DC      0.0000
   1259 N4        -1.0881    -0.7082   996.7224 N.pl3    311 DC      0.0000
   1260 C5        -2.5232     1.1410   996.1767 C.2      311 DC      0.0000
   1261 C6        -2.6102     2.4625   995.9850 C.2      311 DC      0.0000
   1262 H5'       -3.7285     8.4698   996.8182 H        311 DC      0.0000
   1263 H5''      -3.7265     7.1261   997.9882 H        311 DC      0.0000
   1264 H4'       -1.6973     7.5891   996.3324 H        311 DC      0.0000
   1265 H3'       -3.5502     6.9622   994.3888 H        311 DC      0.0000
   1266 H2'       -3.8786     4.6941   995.4905 H        311 DC      0.0000
   1267 H2''      -2.8669     4.3886   994.0252 H        311 DC      0.0000
   1268 H1'       -0.7921     5.0688   995.3241 H        311 DC      0.0000
   1269 H5        -3.3902     0.5036   996.0845 H        311 DC      0.0000
   1270 H6        -3.5696     2.8828   995.7217 H        311 DC      0.0000
   1271 H41       -0.1780    -1.0742   996.9629 H        311 DC      0.0000
   1272 H42       -1.8787    -1.3319   996.6444 H        311 DC      0.0000
   1273 P          7.2429    -6.9226  1030.5957 P.3      321 DG      0.0000
   1274 OP1        7.6990    -8.3345  1030.5941 O.co2    321 DG      0.0000
   1275 OP2        6.1327    -6.8167  1031.6514 O.co2    321 DG      0.0000
   1276 O5'        8.3622    -5.8059  1030.7740 O.3      321 DG      0.0000
   1277 C5'        8.9695    -4.9606  1029.7740 C.3      321 DG      0.0000
   1278 C4'        8.9218    -3.5314  1030.2729 C.3      321 DG      0.0000
   1279 O4'        7.7525    -2.8617  1029.8537 O.3      321 DG      0.0000
   1280 C3'        9.0432    -3.2972  1031.7651 C.3      321 DG      0.0000
   1281 O3'       10.1152    -2.3672  1032.0770 O.3      321 DG      0.0000
   1282 C2'        7.6741    -2.7985  1032.1869 C.3      321 DG      0.0000
   1283 C1'        7.1255    -2.1651  1030.9313 C.3      321 DG      0.0000
   1284 N9         5.6569    -2.2905  1030.9022 N.ar     321 DG      0.0000
   1285 C8         4.8713    -3.3954  1031.1311 C.ar     321 DG      0.0000
   1286 N7         3.5810    -3.1643  1031.0414 N.ar     321 DG      0.0000
   1287 C5         3.5084    -1.8103  1030.7244 C.ar     321 DG      0.0000
   1288 C6         2.4043    -0.9518  1030.4985 C.2      321 DG      0.0000
   1289 O6         1.2051    -1.2304  1030.5198 O.2      321 DG      0.0000
   1290 N1         2.7253     0.3479  1030.2170 N.am     321 DG      0.0000
   1291 C2         3.9453     0.7767  1030.1563 C.2      321 DG      0.0000
   1292 N2         3.9677     2.0179  1029.8595 N.pl3    321 DG      0.0000
   1293 N3         5.0968     0.0108  1030.3651 N.2      321 DG      0.0000
   1294 C4         4.7742    -1.2617  1030.6376 C.ar     321 DG      0.0000
   1295 H5'       10.0050    -5.2618  1029.6153 H        321 DG      0.0000
   1296 H5''       8.4158    -5.0419  1028.8387 H        321 DG      0.0000
   1297 H4'        9.7601    -3.0125  1029.8081 H        321 DG      0.0000
   1298 H3'        9.2427    -4.2481  1032.2590 H        321 DG      0.0000
   1299 H2'        7.0428    -3.6246  1032.5139 H        321 DG      0.0000
   1300 H2''       7.7675    -2.0549  1032.9784 H        321 DG      0.0000
   1301 H1'        7.4046    -1.1119  1030.8993 H        321 DG      0.0000
   1302 H8         5.2790    -4.3680  1031.3642 H        321 DG      0.0000
   1303 H1         1.9756     1.0034  1030.0486 H        321 DG      0.0000
   1304 H21        3.1023     2.5182  1029.7152 H        321 DG      0.0000
   1305 H22        4.8507     2.4997  1029.7691 H        321 DG      0.0000
   1306 P         10.2929    -1.7189  1033.5056 P.3      322 DT      0.0000
   1307 OP1       11.7058    -1.6070  1034.0173 O.co2    322 DT      0.0000
   1308 OP2        9.6254    -2.7584  1034.4243 O.co2    322 DT      0.0000
   1309 O5'        9.4647    -0.4089  1033.5342 O.3      322 DT      0.0000
   1310 C5'       10.0593     0.9102  1033.3902 C.3      322 DT      0.0000
   1311 C4'        8.8861     1.8661  1033.4477 C.3      322 DT      0.0000
   1312 O4'        7.6609     1.2232  1033.1725 O.3      322 DT      0.0000
   1313 C3'        8.6605     2.5727  1034.7604 C.3      322 DT      0.0000
   1314 O3'        8.8768     3.9789  1034.5722 O.3      322 DT      0.0000
   1315 C2'        7.2137     2.2741  1035.1526 C.3      322 DT      0.0000
   1316 C1'        6.6058     2.0089  1033.7999 C.3      322 DT      0.0000
   1317 N1         5.4229     1.1534  1033.8965 N.am     322 DT      0.0000
   1318 C2         4.2026     1.7404  1033.6986 C.2      322 DT      0.0000
   1319 O2         4.0780     2.9395  1033.4604 O.2      322 DT      0.0000
   1320 N3         3.1012     0.9316  1033.7797 N.am     322 DT      0.0000
   1321 C4         3.1799    -0.3940  1034.0356 C.2      322 DT      0.0000
   1322 O4         2.0814    -1.0071  1034.0808 O.2      322 DT      0.0000
   1323 C5         4.4659    -0.9913  1034.2353 C.2      322 DT      0.0000
   1324 C7         4.5967    -2.4532  1034.5152 C.3      322 DT      0.0000
   1325 C6         5.5377    -0.1925  1034.1538 C.2      322 DT      0.0000
   1326 H5'       10.7573     1.1085  1034.2036 H        322 DT      0.0000
   1327 H5''      10.5667     0.9927  1032.4290 H        322 DT      0.0000
   1328 H4'        9.0405     2.6274  1032.6832 H        322 DT      0.0000
   1329 H3'        9.3425     2.1857  1035.5175 H        322 DT      0.0000
   1330 H2'        7.1458     1.4009  1035.8015 H        322 DT      0.0000
   1331 H2''       6.7519     3.1429  1035.6219 H        322 DT      0.0000
   1332 H1'        6.4017     2.9303  1033.2546 H        322 DT      0.0000
   1333 H3         2.1891     1.3431  1033.6422 H        322 DT      0.0000
   1334 H6         6.5205    -0.6178  1034.2941 H        322 DT      0.0000
   1335 H71        4.9144    -2.9700  1033.6096 H        322 DT      0.0000
   1336 H72        3.6341    -2.8481  1034.8399 H        322 DT      0.0000
   1337 H73        5.3366    -2.6079  1035.3005 H        322 DT      0.0000
   1338 P          9.5843     4.6911  1035.8522 P.3      323 DG      0.0000
   1339 OP1       10.4754     5.6987  1035.1371 O.co2    323 DG      0.0000
   1340 OP2       10.3137     3.6869  1036.6057 O.co2    323 DG      0.0000
   1341 O5'        8.2122     5.3314  1036.4617 O.3      323 DG      0.0000
   1342 C5'        7.4403     5.9625  1035.3711 C.3      323 DG      0.0000
   1343 C4'        6.0602     6.2378  1035.8911 C.3      323 DG      0.0000
   1344 O4'        5.1087     5.2232  1035.7105 O.3      323 DG      0.0000
   1345 C3'        6.0549     6.5888  1037.3991 C.3      323 DG      0.0000
   1346 O3'        5.3763     7.8583  1037.5580 O.3      323 DG      0.0000
   1347 C2'        5.4009     5.3896  1038.0517 C.3      323 DG      0.0000
   1348 C1'        4.4249     4.9413  1036.9702 C.3      323 DG      0.0000
   1349 N9         4.0497     3.5332  1037.1397 N.ar     323 DG      0.0000
   1350 C8         4.8428     2.4709  1037.4759 C.ar     323 DG      0.0000
   1351 N7         4.2113     1.3208  1037.5617 N.ar     323 DG      0.0000
   1352 C5         2.9009     1.6593  1037.2316 C.ar     323 DG      0.0000
   1353 C6         1.7275     0.8577  1037.1373 C.2      323 DG      0.0000
   1354 O6         1.6155    -0.3622  1037.3296 O.2      323 DG      0.0000
   1355 N1         0.5886     1.5538  1036.8023 N.am     323 DG      0.0000
   1356 C2         0.6047     2.8968  1036.5785 C.2      323 DG      0.0000
   1357 N2        -0.5950     3.4062  1036.2697 N.pl3    323 DG      0.0000
   1358 N3         1.6734     3.6870  1036.6495 N.2      323 DG      0.0000
   1359 C4         2.7870     3.0090  1036.9761 C.ar     323 DG      0.0000
   1360 H5'        7.9169     6.8956  1035.0706 H        323 DG      0.0000
   1361 H5''       7.3850     5.2854  1034.5187 H        323 DG      0.0000
   1362 H4'        5.6913     7.1156  1035.3605 H        323 DG      0.0000
   1363 H3'        7.0816     6.6797  1037.7539 H        323 DG      0.0000
   1364 H2'        6.1310     4.6117  1038.2747 H        323 DG      0.0000
   1365 H2''       4.8662     5.6861  1038.9541 H        323 DG      0.0000
   1366 H1'        3.5264     5.5556  1037.0291 H        323 DG      0.0000
   1367 H8         5.9031     2.5688  1037.6565 H        323 DG      0.0000
   1368 H1        -0.2850     1.0537  1036.7199 H        323 DG      0.0000
   1369 H21       -1.4026     2.8018  1036.2194 H        323 DG      0.0000
   1370 H22       -0.6920     4.3949  1036.0870 H        323 DG      0.0000
   1371 P          5.2890     8.5713  1038.9464 P.3      324 DA      0.0000
   1372 OP1        6.4083     9.4955  1039.3018 O.co2    324 DA      0.0000
   1373 OP2        5.4327     7.2865  1039.8422 O.co2    324 DA      0.0000
   1374 O5'        3.7964     9.0453  1039.1955 O.3      324 DA      0.0000
   1375 C5'        2.8257     9.2873  1038.1665 C.3      324 DA      0.0000
   1376 C4'        1.5578     8.5958  1038.6408 C.3      324 DA      0.0000
   1377 O4'        1.6991     7.1942  1038.5504 O.3      324 DA      0.0000
   1378 C3'        1.1121     8.9060  1040.0699 C.3      324 DA      0.0000
   1379 O3'       -0.2966     9.2123  1040.1222 O.3      324 DA      0.0000
   1380 C2'        1.4708     7.6090  1040.8053 C.3      324 DA      0.0000
   1381 C1'        1.0882     6.6058  1039.7277 C.3      324 DA      0.0000
   1382 N9         1.6235     5.2599  1039.9561 N.ar     324 DA      0.0000
   1383 C8         2.9090     4.8511  1040.1719 C.ar     324 DA      0.0000
   1384 N7         3.0347     3.5531  1040.3369 N.ar     324 DA      0.0000
   1385 C5         1.7411     3.0732  1040.1967 C.ar     324 DA      0.0000
   1386 C6         1.2191     1.7621  1040.2446 C.ar     324 DA      0.0000
   1387 N6         1.9495     0.6663  1040.4644 N.pl3    324 DA      0.0000
   1388 N1        -0.1304     1.6651  1040.0548 N.ar     324 DA      0.0000
   1389 C2        -0.8899     2.7635  1039.8371 C.ar     324 DA      0.0000
   1390 N3        -0.4685     4.0262  1039.7788 N.ar     324 DA      0.0000
   1391 C4         0.8617     4.1027  1039.9657 C.ar     324 DA      0.0000
   1392 H5'        3.1599     8.8639  1037.2193 H        324 DA      0.0000
   1393 H5''       2.6516    10.3580  1038.0587 H        324 DA      0.0000
   1394 H4'        0.7499     8.8906  1037.9710 H        324 DA      0.0000
   1395 H3'        1.6917     9.7372  1040.4713 H        324 DA      0.0000
   1396 H2'        2.5316     7.5592  1041.0508 H        324 DA      0.0000
   1397 H2''       0.8560     7.4808  1041.6962 H        324 DA      0.0000
   1398 H1'        0.0049     6.5679  1039.6132 H        324 DA      0.0000
   1399 H8         3.7461     5.5326  1040.2040 H        324 DA      0.0000
   1400 H2        -1.9481     2.5997  1039.6957 H        324 DA      0.0000
   1401 H61        2.9533     0.6106  1040.3670 H        324 DA      0.0000
   1402 H62        1.5259    -0.2344  1040.2929 H        324 DA      0.0000
   1403 P         -0.9387    10.2038  1041.2636 P.3      325 DA      0.0000
   1404 OP1       -1.5637    11.4038  1040.5965 O.co2    325 DA      0.0000
   1405 OP2        0.2490    10.4882  1042.0945 O.co2    325 DA      0.0000
   1406 O5'       -2.1824     9.3573  1041.7944 O.3      325 DA      0.0000
   1407 C5'       -3.2778     8.9628  1040.9701 C.3      325 DA      0.0000
   1408 C4'       -3.8088     7.6393  1041.4924 C.3      325 DA      0.0000
   1409 O4'       -2.8044     6.6650  1041.5206 O.3      325 DA      0.0000
   1410 C3'       -4.4702     7.6411  1042.8597 C.3      325 DA      0.0000
   1411 O3'       -5.8508     7.2867  1042.7819 O.3      325 DA      0.0000
   1412 C2'       -3.5986     6.6895  1043.6885 C.3      325 DA      0.0000
   1413 C1'       -2.9547     5.8028  1042.6947 C.3      325 DA      0.0000
   1414 N9        -1.6264     5.2222  1042.9627 N.ar     325 DA      0.0000
   1415 C8        -0.4017     5.8340  1043.0779 C.ar     325 DA      0.0000
   1416 N7         0.5995     5.0032  1043.2472 N.ar     325 DA      0.0000
   1417 C5        -0.0007     3.7487  1043.2102 C.ar     325 DA      0.0000
   1418 C6         0.5385     2.4362  1043.3306 C.ar     325 DA      0.0000
   1419 N6         1.8189     2.1441  1043.5223 N.pl3    325 DA      0.0000
   1420 N1        -0.3689     1.4112  1043.2325 N.ar     325 DA      0.0000
   1421 C2        -1.6949     1.6727  1043.0434 C.ar     325 DA      0.0000
   1422 N3        -2.2625     2.8686  1042.9355 N.ar     325 DA      0.0000
   1423 C4        -1.3592     3.8651  1043.0274 C.ar     325 DA      0.0000
   1424 H5'       -2.9413     8.8449  1039.9401 H        325 DA      0.0000
   1425 H5''      -4.0629     9.7175  1041.0161 H        325 DA      0.0000
   1426 H4'       -4.5594     7.2976  1040.7797 H        325 DA      0.0000
   1427 H3'       -4.3915     8.6424  1043.2829 H        325 DA      0.0000
   1428 H2'       -2.8478     7.2468  1044.2487 H        325 DA      0.0000
   1429 H2''      -4.2193     6.1056  1044.3680 H        325 DA      0.0000
   1430 H1'       -3.6447     4.9957  1042.4486 H        325 DA      0.0000
   1431 H8        -0.2743     6.9055  1043.0330 H        325 DA      0.0000
   1432 H2        -2.3513     0.8179  1042.9742 H        325 DA      0.0000
   1433 H61        2.4851     2.8296  1043.8485 H        325 DA      0.0000
   1434 H62        2.1379     1.2042  1043.3355 H        325 DA      0.0000
   1435 P         -7.0310     7.8672  1043.7381 P.3      326 DT      0.0000
   1436 OP1       -8.2906     8.1864  1042.9408 O.co2    326 DT      0.0000
   1437 OP2       -6.5369     8.9530  1044.5587 O.co2    326 DT      0.0000
   1438 O5'       -7.4910     6.5140  1044.5518 O.3      326 DT      0.0000
   1439 C5'       -7.5067     5.3602  1043.6067 C.3      326 DT      0.0000
   1440 C4'       -6.9043     4.2246  1044.3944 C.3      326 DT      0.0000
   1441 O4'       -5.5126     4.3441  1044.5864 O.3      326 DT      0.0000
   1442 C3'       -7.4988     4.1192  1045.8110 C.3      326 DT      0.0000
   1443 O3'       -8.5106     3.1292  1045.8127 O.3      326 DT      0.0000
   1444 C2'       -6.3017     3.8150  1046.7083 C.3      326 DT      0.0000
   1445 C1'       -5.2498     3.4365  1045.7437 C.3      326 DT      0.0000
   1446 N1        -3.8442     3.5908  1046.0834 N.am     326 DT      0.0000
   1447 C2        -3.0992     2.4239  1046.2214 C.2      326 DT      0.0000
   1448 O2        -3.6517     1.3349  1046.1333 O.2      326 DT      0.0000
   1449 N3        -1.7657     2.5374  1046.4754 N.am     326 DT      0.0000
   1450 C4        -1.1378     3.7440  1046.5955 C.2      326 DT      0.0000
   1451 O4         0.1086     3.7665  1046.8507 O.2      326 DT      0.0000
   1452 C5        -1.9213     4.9325  1046.4239 C.2      326 DT      0.0000
   1453 C7        -1.2741     6.2869  1046.5114 C.3      326 DT      0.0000
   1454 C6        -3.2356     4.8149  1046.1682 C.2      326 DT      0.0000
   1455 H5'       -8.5267     5.1222  1043.3051 H        326 DT      0.0000
   1456 H5''      -6.8950     5.5798  1042.7317 H        326 DT      0.0000
   1457 H4'       -7.1024     3.2924  1043.8653 H        326 DT      0.0000
   1458 H3'       -7.9302     5.0789  1046.0954 H        326 DT      0.0000
   1459 H2'       -6.0088     4.6945  1047.2817 H        326 DT      0.0000
   1460 H2''      -6.5260     2.9821  1047.3747 H        326 DT      0.0000
   1461 H1'       -5.4211     2.4079  1045.4263 H        326 DT      0.0000
   1462 H3        -1.2190     1.6945  1046.5791 H        326 DT      0.0000
   1463 H6        -3.8264     5.7078  1046.0260 H        326 DT      0.0000
   1464 H71       -0.2116     6.1694  1046.7245 H        326 DT      0.0000
   1465 H72       -1.3986     6.8107  1045.5637 H        326 DT      0.0000
   1466 H73       -1.7431     6.8628  1047.3092 H        326 DT      0.0000
   1467 P         -9.5451     2.7904  1046.9193 P.3      327 DT      0.0000
   1468 OP1      -10.7745     2.0704  1046.3072 O.co2    327 DT      0.0000
   1469 OP2       -9.9198     4.0827  1047.5493 O.co2    327 DT      0.0000
   1470 O5'       -8.8325     1.6566  1047.8016 O.3      327 DT      0.0000
   1471 C5'       -8.7112     0.3959  1047.0899 C.3      327 DT      0.0000
   1472 C4'       -7.6780    -0.4368  1047.7660 C.3      327 DT      0.0000
   1473 O4'       -6.3753     0.1334  1047.7427 O.3      327 DT      0.0000
   1474 C3'       -7.9900    -0.7673  1049.2327 C.3      327 DT      0.0000
   1475 O3'       -7.7110    -2.1292  1049.4967 O.3      327 DT      0.0000
   1476 C2'       -6.9663     0.1292  1049.9690 C.3      327 DT      0.0000
   1477 C1'       -5.7803    -0.1403  1049.0654 C.3      327 DT      0.0000
   1478 N1        -4.6815     0.7597  1049.3631 N.am     327 DT      0.0000
   1479 C2        -3.3982     0.2406  1049.4180 C.2      327 DT      0.0000
   1480 O2        -3.2346    -0.9658  1049.2295 O.2      327 DT      0.0000
   1481 N3        -2.3660     1.0955  1049.6839 N.am     327 DT      0.0000
   1482 C4        -2.5612     2.4266  1049.8909 C.2      327 DT      0.0000
   1483 O4        -1.5556     3.1595  1050.1142 O.2      327 DT      0.0000
   1484 C5        -3.8853     2.9504  1049.8258 C.2      327 DT      0.0000
   1485 C7        -4.1810     4.4069  1050.0357 C.3      327 DT      0.0000
   1486 C6        -4.8873     2.0966  1049.5647 C.2      327 DT      0.0000
   1487 H5'       -9.6682    -0.1258  1047.1023 H        327 DT      0.0000
   1488 H5''      -8.4113     0.5851  1046.0592 H        327 DT      0.0000
   1489 H4'       -7.6246    -1.3830  1047.2276 H        327 DT      0.0000
   1490 H3'       -9.0156    -0.5077  1049.4951 H        327 DT      0.0000
   1491 H2'       -7.2583     1.1793  1049.9678 H        327 DT      0.0000
   1492 H2''      -6.7822    -0.2294  1050.9817 H        327 DT      0.0000
   1493 H1'       -5.4624    -1.1801  1049.1411 H        327 DT      0.0000
   1494 H3        -1.4265     0.7274  1049.7283 H        327 DT      0.0000
   1495 H6        -5.8954     2.4803  1049.5116 H        327 DT      0.0000
   1496 H71       -3.2524     4.9418  1050.2347 H        327 DT      0.0000
   1497 H72       -4.6503     4.8147  1049.1404 H        327 DT      0.0000
   1498 H73       -4.8555     4.5221  1050.8841 H        327 DT      0.0000
   1499 P         -8.4882    -3.3495  1050.1047 P.3      328 DC      0.0000
   1500 OP1       -8.8468    -4.3649  1049.0367 O.co2    328 DC      0.0000
   1501 OP2       -9.6232    -2.7619  1050.8396 O.co2    328 DC      0.0000
   1502 O5'       -7.2282    -3.9740  1050.9307 O.3      328 DC      0.0000
   1503 C5'       -6.1719    -4.0954  1049.9084 C.3      328 DC      0.0000
   1504 C4'       -4.9407    -4.6009  1050.6049 C.3      328 DC      0.0000
   1505 O4'       -4.0111    -3.5919  1050.8518 O.3      328 DC      0.0000
   1506 C3'       -5.1971    -5.3694  1051.8964 C.3      328 DC      0.0000
   1507 O3'       -4.6300    -6.6704  1051.8167 O.3      328 DC      0.0000
   1508 C2'       -4.6449    -4.4015  1052.9452 C.3      328 DC      0.0000
   1509 C1'       -3.5699    -3.6653  1052.2487 C.3      328 DC      0.0000
   1510 N1        -3.4089    -2.2462  1052.5808 N.am     328 DC      0.0000
   1511 C2        -2.1058    -1.8252  1052.8366 C.2      328 DC      0.0000
   1512 O2        -1.1622    -2.6218  1052.8411 O.2      328 DC      0.0000
   1513 N3        -1.9135    -0.4936  1053.1105 N.2      328 DC      0.0000
   1514 C4        -2.9503     0.3925  1053.1006 C.2      328 DC      0.0000
   1515 N4        -2.6629     1.6596  1053.3774 N.pl3    328 DC      0.0000
   1516 C5        -4.2637    -0.0459  1052.8225 C.2      328 DC      0.0000
   1517 C6        -4.4365    -1.3572  1052.5578 C.2      328 DC      0.0000
   1518 H5'       -6.4794    -4.7991  1049.1348 H        328 DC      0.0000
   1519 H5''      -5.9724    -3.1203  1049.4642 H        328 DC      0.0000
   1520 H4'       -4.4628    -5.3003  1049.9190 H        328 DC      0.0000
   1521 H3'       -6.2734    -5.4646  1052.0397 H        328 DC      0.0000
   1522 H2'       -5.4228    -3.7168  1053.2831 H        328 DC      0.0000
   1523 H2''      -4.2363    -4.9548  1053.7907 H        328 DC      0.0000
   1524 H1'       -2.6203    -4.1941  1052.3297 H        328 DC      0.0000
   1525 H5        -5.0967     0.6414  1052.8220 H        328 DC      0.0000
   1526 H6        -5.4276    -1.7136  1052.3187 H        328 DC      0.0000
   1527 H41       -1.7102     1.9295  1053.5766 H        328 DC      0.0000
   1528 H42       -3.3971     2.3531  1053.3887 H        328 DC      0.0000
   1529 P         -4.9877    -7.9349  1052.7688 P.3      329 DA      0.0000
   1530 OP1       -4.6768    -9.1893  1051.9750 O.co2    329 DA      0.0000
   1531 OP2       -6.4213    -7.8487  1053.1143 O.co2    329 DA      0.0000
   1532 O5'       -3.9920    -7.7492  1054.0658 O.3      329 DA      0.0000
   1533 C5'       -2.5713    -7.5836  1053.7705 C.3      329 DA      0.0000
   1534 C4'       -1.8039    -7.3264  1055.0258 C.3      329 DA      0.0000
   1535 O4'       -1.4785    -5.9544  1055.2680 O.3      329 DA      0.0000
   1536 C3'       -2.5116    -7.7271  1056.3310 C.3      329 DA      0.0000
   1537 O3'       -1.5288    -7.8557  1057.3610 O.3      329 DA      0.0000
   1538 C2'       -3.3718    -6.4657  1056.5456 C.3      329 DA      0.0000
   1539 C1'       -2.2397    -5.4493  1056.3624 C.3      329 DA      0.0000
   1540 N9        -2.8058    -4.1143  1056.2680 N.ar     329 DA      0.0000
   1541 C8        -4.1051    -3.7040  1056.1522 C.ar     329 DA      0.0000
   1542 N7        -4.2771    -2.3944  1056.1336 N.ar     329 DA      0.0000
   1543 C5        -2.9833    -1.9041  1056.2412 C.ar     329 DA      0.0000
   1544 C6        -2.4682    -0.5848  1056.2757 C.ar     329 DA      0.0000
   1545 N6        -3.2037     0.5090  1056.1904 N.pl3    329 DA      0.0000
   1546 N1        -1.1138    -0.4714  1056.4082 N.ar     329 DA      0.0000
   1547 C2        -0.3128    -1.5792  1056.4884 C.ar     329 DA      0.0000
   1548 N3        -0.7208    -2.8457  1056.4586 N.ar     329 DA      0.0000
   1549 C4        -2.0675    -2.9393  1056.3356 C.ar     329 DA      0.0000
   1550 H5'       -2.1945    -8.4915  1053.2994 H        329 DA      0.0000
   1551 H5''      -2.4402    -6.7429  1053.0892 H        329 DA      0.0000
   1552 H4'       -0.8702    -7.8857  1054.9669 H        329 DA      0.0000
   1553 H3'       -3.1151    -8.6276  1056.2174 H        329 DA      0.0000
   1554 H2'       -4.1549    -6.3601  1055.7949 H        329 DA      0.0000
   1555 H2''      -3.7804    -6.4291  1057.5555 H        329 DA      0.0000
   1556 H1'       -1.6110    -5.4842  1057.2520 H        329 DA      0.0000
   1557 H8        -4.9290    -4.3986  1056.0812 H        329 DA      0.0000
   1558 H2         0.7494    -1.4093  1056.5849 H        329 DA      0.0000
   1559 H61       -3.0323     1.4880  1056.3705 H        329 DA      0.0000
   1560 H62       -4.1458     0.3260  1055.8757 H        329 DA      0.0000
   1561 P         -0.6357    -9.1759  1057.5014 P.3      330 DC      0.0000
   1562 OP1       -0.5968    -9.9941  1056.2563 O.co2    330 DC      0.0000
   1563 OP2       -1.2998    -9.8880  1058.6443 O.co2    330 DC      0.0000
   1564 O5'        0.8164    -8.6052  1057.7846 O.3      330 DC      0.0000
   1565 C5'        1.6752    -8.1469  1056.6969 C.3      330 DC      0.0000
   1566 C4'        2.5209    -7.0803  1057.4018 C.3      330 DC      0.0000
   1567 O4'        1.6660    -6.0049  1057.7138 O.3      330 DC      0.0000
   1568 C3'        3.1441    -7.5554  1058.7117 C.3      330 DC      0.0000
   1569 O3'        4.5670    -7.3097  1058.7796 O.3      330 DC      0.0000
   1570 C2'        2.3469    -6.8116  1059.7939 C.3      330 DC      0.0000
   1571 C1'        1.9893    -5.5506  1059.1178 C.3      330 DC      0.0000
   1572 N1         0.7792    -4.8127  1059.4706 N.am     330 DC      0.0000
   1573 C2         0.9030    -3.4248  1059.4437 C.2      330 DC      0.0000
   1574 O2         1.9696    -2.8597  1059.2368 O.2      330 DC      0.0000
   1575 N3        -0.2150    -2.6927  1059.6968 N.2      330 DC      0.0000
   1576 C4        -1.4214    -3.2638  1059.9302 C.2      330 DC      0.0000
   1577 N4        -2.4431    -2.4415  1060.1611 N.pl3    330 DC      0.0000
   1578 C5        -1.5377    -4.6811  1059.9367 C.2      330 DC      0.0000
   1579 C6        -0.4303    -5.3969  1059.6873 C.2      330 DC      0.0000
   1580 H5'        2.2958    -8.9561  1056.3120 H        330 DC      0.0000
   1581 H5''       1.0817    -7.7025  1055.8979 H        330 DC      0.0000
   1582 H4'        3.3066    -6.7365  1056.7292 H        330 DC      0.0000
   1583 H3'        2.9667    -8.6257  1058.8176 H        330 DC      0.0000
   1584 H2'        1.4563    -7.3708  1060.0809 H        330 DC      0.0000
   1585 H2''       2.9732    -6.6155  1060.6642 H        330 DC      0.0000
   1586 H1'        2.8468    -4.8777  1059.1045 H        330 DC      0.0000
   1587 H5        -2.4832    -5.1639  1060.1353 H        330 DC      0.0000
   1588 H6        -0.5016    -6.4741  1059.6576 H        330 DC      0.0000
   1589 H41       -2.2992    -1.4419  1060.1501 H        330 DC      0.0000
   1590 H42       -3.3618    -2.8175  1060.3473 H        330 DC      0.0000
   1591 P         -3.2905     7.8242  1061.7392 P.3      330 DG      0.0000
   1592 OP1       -3.9273     9.1657  1061.9179 O.co2    330 DG      0.0000
   1593 OP2       -3.9562     6.9879  1060.6543 O.co2    330 DG      0.0000
   1594 O5'       -1.6687     8.0133  1061.5319 O.3      330 DG      0.0000
   1595 C5'       -0.7622     7.6561  1062.6277 C.3      330 DG      0.0000
   1596 C4'        0.4724     7.0198  1061.9934 C.3      330 DG      0.0000
   1597 O4'        0.3546     5.6265  1061.8976 O.3      330 DG      0.0000
   1598 C3'        0.7896     7.5213  1060.5871 C.3      330 DG      0.0000
   1599 O3'        2.2001     7.6983  1060.3201 O.3      330 DG      0.0000
   1600 C2'        0.1768     6.4351  1059.6848 C.3      330 DG      0.0000
   1601 C1'        0.4579     5.1894  1060.5086 C.3      330 DG      0.0000
   1602 N9        -0.5360     4.1374  1060.2353 N.ar     330 DG      0.0000
   1603 C8        -1.8945     4.2783  1060.0786 C.ar     330 DG      0.0000
   1604 N7        -2.5232     3.1540  1059.8602 N.ar     330 DG      0.0000
   1605 C5        -1.5118     2.2009  1059.8850 C.ar     330 DG      0.0000
   1606 C6        -1.5494     0.7896  1059.7286 C.2      330 DG      0.0000
   1607 O6        -2.5555     0.0934  1059.5317 O.2      330 DG      0.0000
   1608 N1        -0.3228     0.1786  1059.8155 N.am     330 DG      0.0000
   1609 C2         0.8240     0.8670  1060.0362 C.2      330 DG      0.0000
   1610 N2         1.9364     0.1403  1060.0995 N.pl3    330 DG      0.0000
   1611 N3         0.9143     2.1932  1060.1939 N.2      330 DG      0.0000
   1612 C4        -0.2895     2.7921  1060.1106 C.ar     330 DG      0.0000
   1613 H5'       -0.4789     8.5487  1063.1855 H        330 DG      0.0000
   1614 H5''      -1.2476     6.9417  1063.2926 H        330 DG      0.0000
   1615 H4'        1.3289     7.2414  1062.6301 H        330 DG      0.0000
   1616 H3'        0.2707     8.4646  1060.4166 H        330 DG      0.0000
   1617 H2'       -0.8929     6.5887  1059.5421 H        330 DG      0.0000
   1618 H2''       0.6934     6.3906  1058.7260 H        330 DG      0.0000
   1619 H1'        1.4630     4.8208  1060.3034 H        330 DG      0.0000
   1620 H8        -2.3970     5.2328  1060.1314 H        330 DG      0.0000
   1621 H1        -0.2729    -0.8247  1059.7107 H        330 DG      0.0000
   1622 H21        1.8920    -0.8621  1059.9844 H        330 DG      0.0000
   1623 H22        2.8254     0.5910  1060.2627 H        330 DG      0.0000
   1624 P          2.6495     7.4861  1058.7966 P.3      329 DT      0.0000
   1625 OP1        3.8643     8.2839  1058.4057 O.co2    329 DT      0.0000
   1626 OP2        1.4368     7.9757  1058.0961 O.co2    329 DT      0.0000
   1627 O5'        2.9555     5.9188  1058.6657 O.3      329 DT      0.0000
   1628 C5'        4.3292     5.4908  1058.9333 C.3      329 DT      0.0000
   1629 C4'        4.5859     4.2059  1058.1763 C.3      329 DT      0.0000
   1630 O4'        3.4599     3.3470  1058.1490 O.3      329 DT      0.0000
   1631 C3'        4.9649     4.4366  1056.7216 C.3      329 DT      0.0000
   1632 O3'        5.9757     3.5318  1056.2265 O.3      329 DT      0.0000
   1633 C2'        3.6479     4.2601  1055.9987 C.3      329 DT      0.0000
   1634 C1'        3.0948     3.0777  1056.7768 C.3      329 DT      0.0000
   1635 N1         1.6318     3.1181  1056.6255 N.am     329 DT      0.0000
   1636 C2         0.9690     1.8996  1056.7323 C.2      329 DT      0.0000
   1637 O2         1.5984     0.8642  1056.9220 O.2      329 DT      0.0000
   1638 N3        -0.3924     1.9170  1056.6121 N.am     329 DT      0.0000
   1639 C4        -1.0823     3.0719  1056.3946 C.2      329 DT      0.0000
   1640 O4        -2.3512     2.9883  1056.2970 O.2      329 DT      0.0000
   1641 C5        -0.3760     4.3041  1056.2882 C.2      329 DT      0.0000
   1642 C7        -1.1269     5.5844  1056.0592 C.3      329 DT      0.0000
   1643 C6         0.9537     4.2811  1056.4099 C.2      329 DT      0.0000
   1644 H5'        5.0258     6.2598  1058.5996 H        329 DT      0.0000
   1645 H5''       4.4579     5.3185  1060.0020 H        329 DT      0.0000
   1646 H4'        5.4061     3.6794  1058.6642 H        329 DT      0.0000
   1647 H3'        5.3089     5.4634  1056.5976 H        329 DT      0.0000
   1648 H2'        3.0122     5.1408  1056.0903 H        329 DT      0.0000
   1649 H2''       3.8076     3.9998  1054.9523 H        329 DT      0.0000
   1650 H1'        3.5111     2.1333  1056.4262 H        329 DT      0.0000
   1651 H3        -0.9022     1.0483  1056.6868 H        329 DT      0.0000
   1652 H6         1.5054     5.2065  1056.3358 H        329 DT      0.0000
   1653 H71       -2.1940     5.3731  1055.9905 H        329 DT      0.0000
   1654 H72       -0.9445     6.2659  1056.8901 H        329 DT      0.0000
   1655 H73       -0.7870     6.0440  1055.1311 H        329 DT      0.0000
   1656 P          7.1163     4.4525  1055.4481 P.3      328 DG      0.0000
   1657 OP1        8.2696     4.8308  1056.3193 O.co2    328 DG      0.0000
   1658 OP2        6.2451     5.5837  1055.0425 O.co2    328 DG      0.0000
   1659 O5'        7.6494     3.4026  1054.3673 O.3      328 DG      0.0000
   1660 C5'        8.5810     2.3751  1054.7907 C.3      328 DG      0.0000
   1661 C4'        7.9454     1.0649  1054.3430 C.3      328 DG      0.0000
   1662 O4'        6.5583     1.0929  1054.6137 O.3      328 DG      0.0000
   1663 C3'        8.1160     0.7574  1052.8553 C.3      328 DG      0.0000
   1664 O3'        8.7328    -0.5004  1052.6468 O.3      328 DG      0.0000
   1665 C2'        6.7192     0.9044  1052.2786 C.3      328 DG      0.0000
   1666 C1'        5.8348     0.6003  1053.4647 C.3      328 DG      0.0000
   1667 N9         4.5416     1.2784  1053.3411 N.ar     328 DG      0.0000
   1668 C8         4.2953     2.6127  1053.1823 C.ar     328 DG      0.0000
   1669 N7         3.0208     2.9084  1053.1042 N.ar     328 DG      0.0000
   1670 C5         2.3798     1.6806  1053.2417 C.ar     328 DG      0.0000
   1671 C6         1.0051     1.3257  1053.2512 C.2      328 DG      0.0000
   1672 O6         0.0441     2.0820  1053.1521 O.2      328 DG      0.0000
   1673 N1         0.7641    -0.0106  1053.4002 N.am     328 DG      0.0000
   1674 C2         1.7804    -0.9254  1053.5331 C.2      328 DG      0.0000
   1675 N2         1.4048    -2.1976  1053.6687 N.pl3    328 DG      0.0000
   1676 N3         3.0905    -0.6591  1053.5373 N.2      328 DG      0.0000
   1677 C4         3.3138     0.6687  1053.3867 C.ar     328 DG      0.0000
   1678 H5'        9.5502     2.5148  1054.3120 H        328 DG      0.0000
   1679 H5''       8.6907     2.3895  1055.8751 H        328 DG      0.0000
   1680 H4'        8.3918     0.2521  1054.9160 H        328 DG      0.0000
   1681 H3'        8.7508     1.5273  1052.4167 H        328 DG      0.0000
   1682 H2'        6.5502     1.9170  1051.9122 H        328 DG      0.0000
   1683 H2''       6.5553     0.1775  1051.4830 H        328 DG      0.0000
   1684 H1'        5.6848    -0.4758  1053.5517 H        328 DG      0.0000
   1685 H8         5.0780     3.3548  1053.1262 H        328 DG      0.0000
   1686 H1        -0.1918    -0.3365  1053.4130 H        328 DG      0.0000
   1687 H21        0.4236    -2.4371  1053.6697 H        328 DG      0.0000
   1688 H22        2.1015    -2.9217  1053.7705 H        328 DG      0.0000
   1689 P          8.4004    -1.7796  1051.7805 P.3      327 DA      0.0000
   1690 OP1        8.7510    -3.0522  1052.5618 O.co2    327 DA      0.0000
   1691 OP2        9.2426    -1.6632  1050.5878 O.co2    327 DA      0.0000
   1692 O5'        6.7808    -1.8023  1051.6057 O.3      327 DA      0.0000
   1693 C5'        6.1181    -2.4385  1052.7621 C.3      327 DA      0.0000
   1694 C4'        5.4142    -3.6641  1052.2343 C.3      327 DA      0.0000
   1695 O4'        4.0445    -3.4436  1052.0121 O.3      327 DA      0.0000
   1696 C3'        5.9722    -4.1406  1050.8938 C.3      327 DA      0.0000
   1697 O3'        6.0751    -5.5424  1050.8186 O.3      327 DA      0.0000
   1698 C2'        5.0624    -3.4451  1049.8973 C.3      327 DA      0.0000
   1699 C1'        3.7758    -3.1614  1050.6211 C.3      327 DA      0.0000
   1700 N9         3.3182    -1.7797  1050.3956 N.ar     327 DA      0.0000
   1701 C8         4.0680    -0.6385  1050.2092 C.ar     327 DA      0.0000
   1702 N7         3.3590     0.4493  1050.0133 N.ar     327 DA      0.0000
   1703 C5         2.0491    -0.0051  1050.1002 C.ar     327 DA      0.0000
   1704 C6         0.8136     0.6756  1049.9946 C.ar     327 DA      0.0000
   1705 N6         0.7058     1.9753  1049.7821 N.pl3    327 DA      0.0000
   1706 N1        -0.3048    -0.0912  1050.1183 N.ar     327 DA      0.0000
   1707 C2        -0.2236    -1.4360  1050.3428 C.ar     327 DA      0.0000
   1708 N3         0.9039    -2.1347  1050.4587 N.ar     327 DA      0.0000
   1709 C4         2.0085    -1.3619  1050.3226 C.ar     327 DA      0.0000
   1710 H5'        6.8581    -2.7227  1053.5102 H        327 DA      0.0000
   1711 H5''       5.3925    -1.7522  1053.1988 H        327 DA      0.0000
   1712 H4'        5.5234    -4.4683  1052.9620 H        327 DA      0.0000
   1713 H3'        6.9734    -3.7246  1050.7807 H        327 DA      0.0000
   1714 H2'        4.8774    -4.0928  1049.0404 H        327 DA      0.0000
   1715 H2''       5.5172    -2.5113  1049.5667 H        327 DA      0.0000
   1716 H1'        3.0103    -3.8496  1050.2629 H        327 DA      0.0000
   1717 H8         5.1480    -0.6388  1050.2231 H        327 DA      0.0000
   1718 H2        -1.1528    -1.9787  1050.4341 H        327 DA      0.0000
   1719 H61       -0.1034     2.4909  1050.0975 H        327 DA      0.0000
   1720 H62        1.4455     2.4616  1049.2959 H        327 DA      0.0000
   1721 P          5.7943    -6.5497  1049.6340 P.3      326 DA      0.0000
   1722 OP1        5.7994    -8.0170  1050.1539 O.co2    326 DA      0.0000
   1723 OP2        6.9480    -6.3608  1048.7004 O.co2    326 DA      0.0000
   1724 O5'        4.3244    -6.2872  1049.1313 O.3      326 DA      0.0000
   1725 C5'        3.2456    -7.1296  1049.5872 C.3      326 DA      0.0000
   1726 C4'        1.9906    -6.6586  1048.8853 C.3      326 DA      0.0000
   1727 O4'        1.8858    -5.2686  1048.7645 O.3      326 DA      0.0000
   1728 C3'        1.8285    -7.2308  1047.4777 C.3      326 DA      0.0000
   1729 O3'        0.6882    -8.1098  1047.4463 O.3      326 DA      0.0000
   1730 C2'        1.8180    -5.9936  1046.5782 C.3      326 DA      0.0000
   1731 C1'        1.2791    -4.9214  1047.4759 C.3      326 DA      0.0000
   1732 N9         1.6905    -3.5538  1047.1764 N.ar     326 DA      0.0000
   1733 C8         2.9585    -3.0463  1046.9816 C.ar     326 DA      0.0000
   1734 N7         2.9843    -1.7483  1046.7762 N.ar     326 DA      0.0000
   1735 C5         1.6585    -1.3680  1046.8507 C.ar     326 DA      0.0000
   1736 C6         1.0289    -0.1101  1046.7172 C.ar     326 DA      0.0000
   1737 N6         1.6815     1.0224  1046.4740 N.pl3    326 DA      0.0000
   1738 N1        -0.3347    -0.1208  1046.8661 N.ar     326 DA      0.0000
   1739 C2        -1.0220    -1.2513  1047.1186 C.ar     326 DA      0.0000
   1740 N3        -0.4960    -2.4720  1047.2574 N.ar     326 DA      0.0000
   1741 C4         0.8475    -2.4583  1047.1102 C.ar     326 DA      0.0000
   1742 H5'        3.4493    -8.1695  1049.3320 H        326 DA      0.0000
   1743 H5''       3.1270    -7.0289  1050.6660 H        326 DA      0.0000
   1744 H4'        1.1399    -6.9993  1049.4754 H        326 DA      0.0000
   1745 H3'        2.7174    -7.8162  1047.2427 H        326 DA      0.0000
   1746 H2'        2.8244    -5.7491  1046.2383 H        326 DA      0.0000
   1747 H2''       1.1548    -6.1469  1045.7268 H        326 DA      0.0000
   1748 H1'        0.1927    -4.9869  1047.5371 H        326 DA      0.0000
   1749 H8         3.8478    -3.6589  1046.9966 H        326 DA      0.0000
   1750 H2        -2.0939    -1.1635  1047.2176 H        326 DA      0.0000
   1751 H61        1.2082     1.8649  1046.7681 H        326 DA      0.0000
   1752 H62        2.5869     1.0393  1046.0268 H        326 DA      0.0000
   1753 P          0.2982    -8.8321  1046.0613 P.3      325 DT      0.0000
   1754 OP1       -0.6758    -9.9685  1046.1195 O.co2    325 DT      0.0000
   1755 OP2        1.6587    -9.1799  1045.5487 O.co2    325 DT      0.0000
   1756 O5'       -0.5130    -7.5573  1045.3582 O.3      325 DT      0.0000
   1757 C5'       -1.3411    -6.9091  1046.3705 C.3      325 DT      0.0000
   1758 C4'       -2.4411    -6.1611  1045.6876 C.3      325 DT      0.0000
   1759 O4'       -2.1653    -4.8042  1045.5071 O.3      325 DT      0.0000
   1760 C3'       -2.8231    -6.7215  1044.3263 C.3      325 DT      0.0000
   1761 O3'       -4.2287    -6.6433  1044.0590 O.3      325 DT      0.0000
   1762 C2'       -1.9392    -5.8415  1043.4330 C.3      325 DT      0.0000
   1763 C1'       -2.1150    -4.4810  1044.0730 C.3      325 DT      0.0000
   1764 N1        -0.9359    -3.6251  1043.8430 N.am     325 DT      0.0000
   1765 C2        -1.1487    -2.2632  1043.7214 C.2      325 DT      0.0000
   1766 O2        -2.2858    -1.7903  1043.7582 O.2      325 DT      0.0000
   1767 N3        -0.0570    -1.4552  1043.5540 N.am     325 DT      0.0000
   1768 C4         1.2070    -1.9549  1043.5055 C.2      325 DT      0.0000
   1769 O4         2.1562    -1.1361  1043.3199 O.2      325 DT      0.0000
   1770 C5         1.4057    -3.3562  1043.6539 C.2      325 DT      0.0000
   1771 C7         2.7947    -3.9466  1043.6018 C.3      325 DT      0.0000
   1772 C6         0.3298    -4.1311  1043.8268 C.2      325 DT      0.0000
   1773 H5'       -1.7671    -7.6629  1047.0326 H        325 DT      0.0000
   1774 H5''      -0.7327    -6.2151  1046.9505 H        325 DT      0.0000
   1775 H4'       -3.3229    -6.2299  1046.3246 H        325 DT      0.0000
   1776 H3'       -2.4957    -7.7587  1044.2543 H        325 DT      0.0000
   1777 H2'       -0.8982    -6.1633  1043.4635 H        325 DT      0.0000
   1778 H2''      -2.3109    -5.8363  1042.4083 H        325 DT      0.0000
   1779 H1'       -3.0328    -3.9968  1043.7390 H        325 DT      0.0000
   1780 H3        -0.1939    -0.4585  1043.4638 H        325 DT      0.0000
   1781 H6         0.4682    -5.1941  1043.9582 H        325 DT      0.0000
   1782 H71        2.9948    -4.3175  1042.5966 H        325 DT      0.0000
   1783 H72        2.8664    -4.7692  1044.3133 H        325 DT      0.0000
   1784 H73        3.5254    -3.1796  1043.8583 H        325 DT      0.0000
   1785 P         -4.6935    -7.1317  1042.5691 P.3      324 DT      0.0000
   1786 OP1       -5.5459    -8.3934  1042.7171 O.co2    324 DT      0.0000
   1787 OP2       -3.3940    -7.4754  1041.8993 O.co2    324 DT      0.0000
   1788 O5'       -5.4797    -5.9658  1041.9170 O.3      324 DT      0.0000
   1789 C5'       -6.2389    -5.0186  1042.6684 C.3      324 DT      0.0000
   1790 C4'       -6.2454    -3.7241  1041.9205 C.3      324 DT      0.0000
   1791 O4'       -5.0590    -2.9791  1041.8635 O.3      324 DT      0.0000
   1792 C3'       -6.7293    -3.7508  1040.4544 C.3      324 DT      0.0000
   1793 O3'       -7.3850    -2.4834  1040.3506 O.3      324 DT      0.0000
   1794 C2'       -5.3986    -3.7754  1039.6906 C.3      324 DT      0.0000
   1795 C1'       -4.7181    -2.6662  1040.4664 C.3      324 DT      0.0000
   1796 N1        -3.2572    -2.6146  1040.3602 N.am     324 DT      0.0000
   1797 C2        -2.7000    -1.3288  1040.3596 C.2      324 DT      0.0000
   1798 O2        -3.4151    -0.3255  1040.4026 O.2      324 DT      0.0000
   1799 N3        -1.3386    -1.2420  1040.3061 N.am     324 DT      0.0000
   1800 C4        -0.5310    -2.3387  1040.2464 C.2      324 DT      0.0000
   1801 O4         0.7216    -2.1531  1040.1840 O.2      324 DT      0.0000
   1802 C5        -1.1226    -3.6313  1040.2546 C.2      324 DT      0.0000
   1803 C7        -0.2373    -4.8585  1040.1932 C.3      324 DT      0.0000
   1804 C6        -2.4547    -3.7114  1040.3211 C.2      324 DT      0.0000
   1805 H5'       -7.2604    -5.3787  1042.7907 H        324 DT      0.0000
   1806 H5''      -5.7809    -4.8747  1043.6470 H        324 DT      0.0000
   1807 H4'       -6.9584    -3.0903  1042.4477 H        324 DT      0.0000
   1808 H3'       -7.3779    -4.5964  1040.2257 H        324 DT      0.0000
   1809 H2'       -5.5196    -3.5319  1038.6351 H        324 DT      0.0000
   1810 H2''      -4.8827    -4.7264  1039.8222 H        324 DT      0.0000
   1811 H1'       -5.1446    -1.7026  1040.1874 H        324 DT      0.0000
   1812 H3        -0.9117    -0.3267  1040.3110 H        324 DT      0.0000
   1813 H6        -2.9134    -4.6889  1040.3448 H        324 DT      0.0000
   1814 H71        0.8074    -4.5514  1040.1444 H        324 DT      0.0000
   1815 H72       -0.4861    -5.4417  1039.3066 H        324 DT      0.0000
   1816 H73       -0.3961    -5.4660  1041.0841 H        324 DT      0.0000
   1817 P         -8.3188    -2.0093  1039.2044 P.3      323 DC      0.0000
   1818 OP1       -9.5916    -1.4183  1039.8135 O.co2    323 DC      0.0000
   1819 OP2       -8.6597    -3.2389  1038.4226 O.co2    323 DC      0.0000
   1820 O5'       -7.3737    -0.9073  1038.4650 O.3      323 DC      0.0000
   1821 C5'       -7.2161     0.3566  1039.1895 C.3      323 DC      0.0000
   1822 C4'       -7.1048     1.4309  1038.1390 C.3      323 DC      0.0000
   1823 O4'       -5.7680     1.8009  1037.8937 O.3      323 DC      0.0000
   1824 C3'       -7.6962     1.0727  1036.7746 C.3      323 DC      0.0000
   1825 O3'       -8.2686     2.1736  1036.0653 O.3      323 DC      0.0000
   1826 C2'       -6.4724     0.4502  1036.0884 C.3      323 DC      0.0000
   1827 C1'       -5.3234     1.2953  1036.6350 C.3      323 DC      0.0000
   1828 N1        -4.1312     0.4232  1036.7528 N.am     323 DC      0.0000
   1829 C2        -2.8864     1.0507  1036.7701 C.2      323 DC      0.0000
   1830 O2        -2.7897     2.2837  1036.7014 O.2      323 DC      0.0000
   1831 N3        -1.7820     0.2487  1036.8733 N.2      323 DC      0.0000
   1832 C4        -1.8764    -1.1049  1036.9441 C.2      323 DC      0.0000
   1833 N4        -0.7698    -1.8444  1037.0460 N.pl3    323 DC      0.0000
   1834 C5        -3.1591    -1.7200  1036.9189 C.2      323 DC      0.0000
   1835 C6        -4.2435    -0.9314  1036.8253 C.2      323 DC      0.0000
   1836 H5'       -8.0825     0.5382  1039.8255 H        323 DC      0.0000
   1837 H5''      -6.3090     0.3300  1039.7934 H        323 DC      0.0000
   1838 H4'       -7.6307     2.3115  1038.5078 H        323 DC      0.0000
   1839 H3'       -8.4567     0.3035  1036.9087 H        323 DC      0.0000
   1840 H2'       -6.5429     0.5352  1035.0041 H        323 DC      0.0000
   1841 H2''      -6.3559    -0.5924  1036.3844 H        323 DC      0.0000
   1842 H1'       -5.1139     2.1215  1035.9556 H        323 DC      0.0000
   1843 H5        -3.2590    -2.7940  1036.9737 H        323 DC      0.0000
   1844 H6        -5.2248    -1.3821  1036.8072 H        323 DC      0.0000
   1845 H41        0.1359    -1.3978  1037.0667 H        323 DC      0.0000
   1846 H42       -0.8382    -2.8505  1037.1024 H        323 DC      0.0000
   1847 P         -8.2178     2.4018  1034.4333 P.3      322 DA      0.0000
   1848 OP1       -9.3689     3.3039  1034.0438 O.co2    322 DA      0.0000
   1849 OP2       -8.2798     1.0286  1033.8632 O.co2    322 DA      0.0000
   1850 O5'       -6.8612     3.2269  1034.2678 O.3      322 DA      0.0000
   1851 C5'       -6.8451     4.6323  1034.7332 C.3      322 DA      0.0000
   1852 C4'       -5.7622     5.2369  1033.8559 C.3      322 DA      0.0000
   1853 O4'       -4.5085     4.5957  1034.1232 O.3      322 DA      0.0000
   1854 C3'       -5.9988     5.0142  1032.3515 C.3      322 DA      0.0000
   1855 O3'       -5.2062     5.8871  1031.5624 O.3      322 DA      0.0000
   1856 C2'       -5.3751     3.6190  1032.1640 C.3      322 DA      0.0000
   1857 C1'       -4.0609     3.9594  1032.9187 C.3      322 DA      0.0000
   1858 N9        -3.3806     2.6765  1033.0641 N.ar     322 DA      0.0000
   1859 C8        -3.9768     1.4374  1033.1370 C.ar     322 DA      0.0000
   1860 N7        -3.1195     0.4543  1033.2516 N.ar     322 DA      0.0000
   1861 C5        -1.8716     1.1028  1033.2452 C.ar     322 DA      0.0000
   1862 C6        -0.5513     0.5843  1033.3452 C.ar     322 DA      0.0000
   1863 N6        -0.2710    -0.7164  1033.4680 N.pl3    322 DA      0.0000
   1864 N1         0.4289     1.5298  1033.3100 N.ar     322 DA      0.0000
   1865 C2         0.1449     2.8499  1033.1911 C.ar     322 DA      0.0000
   1866 N3        -1.0674     3.4042  1033.0997 N.ar     322 DA      0.0000
   1867 C4        -2.0260     2.4620  1033.1272 C.ar     322 DA      0.0000
   1868 H5'       -7.8073     5.1166  1034.5664 H        322 DA      0.0000
   1869 H5''      -6.5638     4.6865  1035.7848 H        322 DA      0.0000
   1870 H4'       -5.6788     6.3044  1034.0599 H        322 DA      0.0000
   1871 H3'       -7.0544     5.0438  1032.0819 H        322 DA      0.0000
   1872 H2'       -5.9496     2.8278  1032.6457 H        322 DA      0.0000
   1873 H2''      -5.1900     3.3988  1031.1127 H        322 DA      0.0000
   1874 H1'       -3.4528     4.6464  1032.3303 H        322 DA      0.0000
   1875 H8        -5.0463     1.2909  1033.1029 H        322 DA      0.0000
   1876 H2         0.9876     3.5249  1033.1679 H        322 DA      0.0000
   1877 H61       -1.0194    -1.3941  1033.4928 H        322 DA      0.0000
   1878 H62        0.6893    -1.0217  1033.5361 H        322 DA      0.0000
   1879 P         -5.8651     6.7735  1030.4215 P.3      321 DC      0.0000
   1880 OP1       -6.3755     7.9736  1031.2018 O.co2    321 DC      0.0000
   1881 OP2       -6.9256     6.0653  1029.6959 O.co2    321 DC      0.0000
   1882 O5'       -4.5657     7.0257  1029.4456 O.3      321 DC      0.0000
   1883 C5'       -3.3575     7.5544  1030.1147 C.3      321 DC      0.0000
   1884 C4'       -2.1451     6.9355  1029.4706 C.3      321 DC      0.0000
   1885 O4'       -1.7031     5.7432  1030.1078 O.3      321 DC      0.0000
   1886 C3'       -2.3715     6.5735  1027.9928 C.3      321 DC      0.0000
   1887 O3'       -1.2110     6.7062  1027.1815 O.3      321 DC      0.0000
   1888 C2'       -2.7080     5.0553  1028.1585 C.3      321 DC      0.0000
   1889 C1'       -1.4417     4.7926  1029.0541 C.3      321 DC      0.0000
   1890 N1        -1.3817     3.3741  1029.2920 N.am     321 DC      0.0000
   1891 C2        -0.1572     2.8088  1029.6091 C.2      321 DC      0.0000
   1892 O2         0.9476     3.3452  1029.7496 O.2      321 DC      0.0000
   1893 N3        -0.1068     1.4569  1029.8073 N.2      321 DC      0.0000
   1894 C4        -1.2165     0.6658  1029.6913 C.2      321 DC      0.0000
   1895 N4        -1.1207    -0.6554  1029.9074 N.pl3    321 DC      0.0000
   1896 C5        -2.4659     1.2601  1029.3617 C.2      321 DC      0.0000
   1897 C6        -2.4897     2.5842  1029.1700 C.2      321 DC      0.0000
   1898 H5'       -3.3201     8.6381  1030.0032 H        321 DC      0.0000
   1899 H5''      -3.3822     7.2958  1031.1733 H        321 DC      0.0000
   1900 H4'       -1.3333     7.6614  1029.5174 H        321 DC      0.0000
   1901 H3'       -3.2140     7.1236  1027.5738 H        321 DC      0.0000
   1902 H2'       -3.6502     4.8738  1028.6756 H        321 DC      0.0000
   1903 H2''      -2.6543     4.5204  1027.2102 H        321 DC      0.0000
   1904 H1'       -0.5494     5.1008  1028.5091 H        321 DC      0.0000
   1905 H5        -3.3623     0.6647  1029.2696 H        321 DC      0.0000
   1906 H6        -3.4279     3.0498  1028.9067 H        321 DC      0.0000
   1907 H41       -0.2291    -1.0644  1030.1479 H        321 DC      0.0000
   1908 H42       -1.9401    -1.2407  1029.8295 H        321 DC      0.0000
   1909 P          6.9043    -7.2603  1063.7807 P.3      331 DG      0.0000
   1910 OP1        7.2926    -8.6923  1063.7792 O.co2    331 DG      0.0000
   1911 OP2        5.8005    -7.1016  1064.8364 O.co2    331 DG      0.0000
   1912 O5'        8.0756    -6.1982  1063.9591 O.3      331 DG      0.0000
   1913 C5'        8.7226    -5.3829  1062.9591 C.3      331 DG      0.0000
   1914 C4'        8.7432    -3.9530  1063.4579 C.3      331 DG      0.0000
   1915 O4'        7.6071    -3.2283  1063.0387 O.3      331 DG      0.0000
   1916 C3'        8.8756    -3.7249  1064.9501 C.3      331 DG      0.0000
   1917 O3'        9.9908    -2.8471  1065.2621 O.3      331 DG      0.0000
   1918 C2'        7.5319    -3.1614  1065.3720 C.3      331 DG      0.0000
   1919 C1'        7.0141    -2.5026  1064.1163 C.3      331 DG      0.0000
   1920 N9         5.5412    -2.5578  1064.0873 N.ar     331 DG      0.0000
   1921 C8         4.7038    -3.6240  1064.3162 C.ar     331 DG      0.0000
   1922 N7         3.4259    -3.3315  1064.2264 N.ar     331 DG      0.0000
   1923 C5         3.4180    -1.9757  1063.9094 C.ar     331 DG      0.0000
   1924 C6         2.3561    -1.0654  1063.6835 C.2      331 DG      0.0000
   1925 O6         1.1450    -1.2865  1063.7048 O.2      331 DG      0.0000
   1926 N1         2.7388     0.2175  1063.4020 N.am     331 DG      0.0000
   1927 C2         3.9779     0.5876  1063.3414 C.2      331 DG      0.0000
   1928 N2         4.0594     1.8263  1063.0446 N.pl3    331 DG      0.0000
   1929 N3         5.0915    -0.2324  1063.5501 N.2      331 DG      0.0000
   1930 C4         4.7085    -1.4880  1063.8227 C.ar     331 DG      0.0000
   1931 H5'        9.7425    -5.7332  1062.8004 H        331 DG      0.0000
   1932 H5''       8.1656    -5.4377  1062.0237 H        331 DG      0.0000
   1933 H4'        9.6053    -3.4747  1062.9932 H        331 DG      0.0000
   1934 H3'        9.0295    -4.6842  1065.4441 H        331 DG      0.0000
   1935 H2'        6.8618    -3.9565  1065.6990 H        331 DG      0.0000
   1936 H2''       7.6606    -2.4231  1066.1635 H        331 DG      0.0000
   1937 H1'        7.3431    -1.4639  1064.0844 H        331 DG      0.0000
   1938 H8         5.0646    -4.6149  1064.5492 H        331 DG      0.0000
   1939 H1         2.0212     0.9080  1063.2336 H        331 DG      0.0000
   1940 H21        3.2189     2.3674  1062.9002 H        331 DG      0.0000
   1941 H22        4.9645     2.2654  1062.9541 H        331 DG      0.0000
   1942 P         10.1992    -2.2081  1066.6906 P.3      332 DT      0.0000
   1943 OP1       11.6158    -2.1637  1067.2023 O.co2    332 DT      0.0000
   1944 OP2        9.4829    -3.2145  1067.6093 O.co2    332 DT      0.0000
   1945 O5'        9.4344    -0.8600  1066.7192 O.3      332 DT      0.0000
   1946 C5'       10.0913     0.4293  1066.5752 C.3      332 DT      0.0000
   1947 C4'        8.9650     1.4400  1066.6327 C.3      332 DT      0.0000
   1948 O4'        7.7105     0.8563  1066.3576 O.3      332 DT      0.0000
   1949 C3'        8.7734     2.1566  1067.9454 C.3      332 DT      0.0000
   1950 O3'        9.0565     3.5509  1067.7572 O.3      332 DT      0.0000
   1951 C2'        7.3140     1.9274  1068.3377 C.3      332 DT      0.0000
   1952 C1'        6.6941     1.6914  1066.9849 C.3      332 DT      0.0000
   1953 N1         5.4718     0.8933  1067.0816 N.am     332 DT      0.0000
   1954 C2         4.2808     1.5379  1066.8836 C.2      332 DT      0.0000
   1955 O2         4.2136     2.7416  1066.6455 O.2      332 DT      0.0000
   1956 N3         3.1421     0.7825  1066.9647 N.am     332 DT      0.0000
   1957 C4         3.1575    -0.5452  1067.2206 C.2      332 DT      0.0000
   1958 O4         2.0310    -1.1053  1067.2659 O.2      332 DT      0.0000
   1959 C5         4.4135    -1.2032  1067.4203 C.2      332 DT      0.0000
   1960 C7         4.4744    -2.6697  1067.7002 C.3      332 DT      0.0000
   1961 C6         5.5222    -0.4565  1067.3388 C.2      332 DT      0.0000
   1962 H5'       10.7979     0.5940  1067.3886 H        332 DT      0.0000
   1963 H5''      10.6020     0.4874  1065.6140 H        332 DT      0.0000
   1964 H4'        9.1555     2.1931  1065.8682 H        332 DT      0.0000
   1965 H3'        9.4362     1.7375  1068.7025 H        332 DT      0.0000
   1966 H2'        7.2045     1.0583  1068.9865 H        332 DT      0.0000
   1967 H2''       6.8942     2.8172  1068.8069 H        332 DT      0.0000
   1968 H1'        6.5342     2.6216  1066.4396 H        332 DT      0.0000
   1969 H3         2.2507     1.2371  1066.8272 H        332 DT      0.0000
   1970 H6         6.4836    -0.9281  1067.4792 H        332 DT      0.0000
   1971 H71        4.7671    -3.2011  1066.7947 H        332 DT      0.0000
   1972 H72        3.4941    -3.0183  1068.0250 H        332 DT      0.0000
   1973 H73        5.2061    -2.8596  1068.4855 H        332 DT      0.0000
   1974 P          9.7972     4.2285  1069.0372 P.3      333 DG      0.0000
   1975 OP1       10.7353     5.1924  1068.3221 O.co2    333 DG      0.0000
   1976 OP2       10.4779     3.1906  1069.7907 O.co2    333 DG      0.0000
   1977 O5'        8.4572     4.9336  1069.6467 O.3      333 DG      0.0000
   1978 C5'        7.7163     5.6007  1068.5561 C.3      333 DG      0.0000
   1979 C4'        6.3509     5.9415  1069.0761 C.3      333 DG      0.0000
   1980 O4'        5.3521     4.9735  1068.8956 O.3      333 DG      0.0000
   1981 C3'        6.3624     6.2925  1070.5842 C.3      333 DG      0.0000
   1982 O3'        5.7451     7.5928  1070.7430 O.3      333 DG      0.0000
   1983 C2'        5.6519     5.1258  1071.2368 C.3      333 DG      0.0000
   1984 C1'        4.6556     4.7246  1070.1552 C.3      333 DG      0.0000
   1985 N9         4.2137     3.3359  1070.3247 N.ar     333 DG      0.0000
   1986 C8         4.9552     2.2370  1070.6609 C.ar     333 DG      0.0000
   1987 N7         4.2695     1.1184  1070.7467 N.ar     333 DG      0.0000
   1988 C5         2.9768     1.5190  1070.4167 C.ar     333 DG      0.0000
   1989 C6         1.7664     0.7743  1070.3223 C.2      333 DG      0.0000
   1990 O6         1.5964    -0.4389  1070.5147 O.2      333 DG      0.0000
   1991 N1         0.6621     1.5239  1069.9873 N.am     333 DG      0.0000
   1992 C2         0.7422     2.8646  1069.7635 C.2      333 DG      0.0000
   1993 N2        -0.4318     3.4307  1069.4547 N.pl3    333 DG      0.0000
   1994 N3         1.8474     3.6030  1069.8345 N.2      333 DG      0.0000
   1995 C4         2.9274     2.8726  1070.1611 C.ar     333 DG      0.0000
   1996 H5'        8.2369     6.5100  1068.2556 H        333 DG      0.0000
   1997 H5''       7.6288     4.9271  1067.7037 H        333 DG      0.0000
   1998 H4'        6.0243     6.8359  1068.5456 H        333 DG      0.0000
   1999 H3'        7.3922     6.3342  1070.9390 H        333 DG      0.0000
   2000 H2'        6.3441     4.3139  1071.4597 H        333 DG      0.0000
   2001 H2''       5.1319     5.4474  1072.1392 H        333 DG      0.0000
   2002 H1'        3.7874     5.3810  1070.2141 H        333 DG      0.0000
   2003 H8         6.0190     2.2843  1070.8416 H        333 DG      0.0000
   2004 H1        -0.2344     1.0661  1069.9050 H        333 DG      0.0000
   2005 H21       -1.2673     2.8655  1069.4045 H        333 DG      0.0000
   2006 H22       -0.4815     4.4229  1069.2720 H        333 DG      0.0000
   2007 P          5.6919     8.3092  1072.1315 P.3      334 DA      0.0000
   2008 OP1        6.8540     9.1790  1072.4868 O.co2    334 DA      0.0000
   2009 OP2        5.7741     7.0190  1073.0272 O.co2    334 DA      0.0000
   2010 O5'        4.2236     8.8539  1072.3806 O.3      334 DA      0.0000
   2011 C5'        3.2656     9.1419  1071.3515 C.3      334 DA      0.0000
   2012 C4'        1.9661     8.5117  1071.8259 C.3      334 DA      0.0000
   2013 O4'        2.0404     7.1049  1071.7355 O.3      334 DA      0.0000
   2014 C3'        1.5357     8.8428  1073.2549 C.3      334 DA      0.0000
   2015 O3'        0.1432     9.2160  1073.3072 O.3      334 DA      0.0000
   2016 C2'        1.8321     7.5301  1073.9904 C.3      334 DA      0.0000
   2017 C1'        1.4021     6.5463  1072.9128 C.3      334 DA      0.0000
   2018 N9         1.8726     5.1764  1073.1412 N.ar     334 DA      0.0000
   2019 C8         3.1371     4.7067  1073.3569 C.ar     334 DA      0.0000
   2020 N7         3.2007     3.4043  1073.5219 N.ar     334 DA      0.0000
   2021 C5         1.8857     2.9866  1073.3817 C.ar     334 DA      0.0000
   2022 C6         1.3018     1.7019  1073.4297 C.ar     334 DA      0.0000
   2023 N6         1.9791     0.5725  1073.6494 N.pl3    334 DA      0.0000
   2024 N1        -0.0508     1.6694  1073.2399 N.ar     334 DA      0.0000
   2025 C2        -0.7570     2.8028  1073.0221 C.ar     334 DA      0.0000
   2026 N3        -0.2759     4.0440  1072.9639 N.ar     334 DA      0.0000
   2027 C4         1.0565     4.0570  1073.1507 C.ar     334 DA      0.0000
   2028 H5'        3.5792     8.7031  1070.4044 H        334 DA      0.0000
   2029 H5''       3.1428    10.2197  1071.2438 H        334 DA      0.0000
   2030 H4'        1.1732     8.8447  1071.1561 H        334 DA      0.0000
   2031 H3'        2.1544     9.6454  1073.6563 H        334 DA      0.0000
   2032 H2'        2.8894     7.4298  1074.2358 H        334 DA      0.0000
   2033 H2''       1.2119     7.4314  1074.8812 H        334 DA      0.0000
   2034 H1'        0.3182     6.5601  1072.7982 H        334 DA      0.0000
   2035 H8         4.0058     5.3476  1073.3890 H        334 DA      0.0000
   2036 H2        -1.8218     2.6897  1072.8807 H        334 DA      0.0000
   2037 H61        2.9791     0.4690  1073.5520 H        334 DA      0.0000
   2038 H62        1.5130    -0.3069  1073.4779 H        334 DA      0.0000
   2039 P         -5.0284    -6.8996  1075.7541 P.3      334 DT      0.0000
   2040 OP1       -5.9401    -8.1192  1075.9021 O.co2    334 DT      0.0000
   2041 OP2       -3.7468    -7.3049  1075.0843 O.co2    334 DT      0.0000
   2042 O5'       -5.7581    -5.6976  1075.1021 O.3      334 DT      0.0000
   2043 C5'       -6.4712    -4.7152  1075.8535 C.3      334 DT      0.0000
   2044 C4'       -6.4159    -3.4219  1075.1055 C.3      334 DT      0.0000
   2045 O4'       -5.1953    -2.7344  1075.0485 O.3      334 DT      0.0000
   2046 C3'       -6.9006    -3.4255  1073.6394 C.3      334 DT      0.0000
   2047 O3'       -7.4951    -2.1282  1073.5357 O.3      334 DT      0.0000
   2048 C2'       -5.5726    -3.5135  1072.8757 C.3      334 DT      0.0000
   2049 C1'       -4.8400    -2.4381  1073.6514 C.3      334 DT      0.0000
   2050 N1        -3.3782    -2.4562  1073.5452 N.am     334 DT      0.0000
   2051 C2        -2.7604    -1.1985  1073.5446 C.2      334 DT      0.0000
   2052 O2        -3.4267    -0.1622  1073.5877 O.2      334 DT      0.0000
   2053 N3        -1.3963    -1.1768  1073.4912 N.am     334 DT      0.0000
   2054 C4        -0.6420    -2.3107  1073.4314 C.2      334 DT      0.0000
   2055 O4         0.6181    -2.1851  1073.3690 O.2      334 DT      0.0000
   2056 C5        -1.2946    -3.5736  1073.4397 C.2      334 DT      0.0000
   2057 C7        -0.4688    -4.8416  1073.3782 C.3      334 DT      0.0000
   2058 C6        -2.6290    -3.5901  1073.5061 C.2      334 DT      0.0000
   2059 H5'       -7.5088    -5.0262  1075.9757 H        334 DT      0.0000
   2060 H5''      -6.0069    -4.5934  1076.8320 H        334 DT      0.0000
   2061 H4'       -7.0979    -2.7548  1075.6327 H        334 DT      0.0000
   2062 H3'       -7.5888    -4.2392  1073.4107 H        334 DT      0.0000
   2063 H2'       -5.6818    -3.2646  1071.8201 H        334 DT      0.0000
   2064 H2''      -5.1026    -4.4881  1073.0073 H        334 DT      0.0000
   2065 H1'       -5.2200    -1.4553  1073.3724 H        334 DT      0.0000
   2066 H3        -0.9263    -0.2828  1073.4961 H        334 DT      0.0000
   2067 H6        -3.1338    -4.5445  1073.5298 H        334 DT      0.0000
   2068 H71        0.5894    -4.5847  1073.3294 H        334 DT      0.0000
   2069 H72       -0.7452    -5.4123  1072.4916 H        334 DT      0.0000
   2070 H73       -0.6564    -5.4409  1074.2692 H        334 DT      0.0000
   2071 P         -8.4052    -1.6101  1072.3895 P.3      333 DC      0.0000
   2072 OP1       -9.6483    -0.9591  1072.9986 O.co2    333 DC      0.0000
   2073 OP2       -8.8044    -2.8221  1071.6076 O.co2    333 DC      0.0000
   2074 O5'       -7.4086    -0.5545  1071.6500 O.3      333 DC      0.0000
   2075 C5'       -7.1909     0.7005  1072.3746 C.3      333 DC      0.0000
   2076 C4'       -7.0285     1.7682  1071.3240 C.3      333 DC      0.0000
   2077 O4'       -5.6755     2.0740  1071.0787 O.3      333 DC      0.0000
   2078 C3'       -7.6362     1.4386  1069.9596 C.3      333 DC      0.0000
   2079 O3'       -8.1555     2.5656  1069.2503 O.3      333 DC      0.0000
   2080 C2'       -6.4435     0.7584  1069.2735 C.3      333 DC      0.0000
   2081 C1'       -5.2555     1.5478  1069.8201 C.3      333 DC      0.0000
   2082 N1        -4.1063     0.6198  1069.9379 N.am     333 DC      0.0000
   2083 C2        -2.8330     1.1872  1069.9551 C.2      333 DC      0.0000
   2084 O2        -2.6776     2.4142  1069.8864 O.2      333 DC      0.0000
   2085 N3        -1.7681     0.3334  1070.0583 N.2      333 DC      0.0000
   2086 C4        -1.9270    -1.0141  1070.1291 C.2      333 DC      0.0000
   2087 N4        -0.8569    -1.8056  1070.2310 N.pl3    333 DC      0.0000
   2088 C5        -3.2376    -1.5673  1070.1040 C.2      333 DC      0.0000
   2089 C6        -4.2831    -0.7279  1070.0104 C.2      333 DC      0.0000
   2090 H5'       -8.0476     0.9232  1073.0105 H        333 DC      0.0000
   2091 H5''      -6.2861     0.6306  1072.9785 H        333 DC      0.0000
   2092 H4'       -7.5117     2.6730  1071.6928 H        333 DC      0.0000
   2093 H3'       -8.4326     0.7067  1070.0938 H        333 DC      0.0000
   2094 H2'       -6.5100     0.8467  1068.1891 H        333 DC      0.0000
   2095 H2''      -6.3770    -0.2885  1069.5694 H        333 DC      0.0000
   2096 H1'       -5.0068     2.3631  1069.1407 H        333 DC      0.0000
   2097 H5        -3.3886    -2.6353  1070.1587 H        333 DC      0.0000
   2098 H6        -5.2848    -1.1312  1069.9923 H        333 DC      0.0000
   2099 H41        0.0691    -1.4027  1070.2517 H        333 DC      0.0000
   2100 H42       -0.9732    -2.8073  1070.2874 H        333 DC      0.0000
   2101 P         -8.0938     2.7912  1067.6183 P.3      332 DA      0.0000
   2102 OP1       -9.2006     3.7471  1067.2288 O.co2    332 DA      0.0000
   2103 OP2       -8.2213     1.4224  1067.0483 O.co2    332 DA      0.0000
   2104 O5'       -6.6994     3.5506  1067.4528 O.3      332 DA      0.0000
   2105 C5'       -6.6163     4.9536  1067.9182 C.3      332 DA      0.0000
   2106 C4'       -5.5058     5.5058  1067.0409 C.3      332 DA      0.0000
   2107 O4'       -4.2841     4.8056  1067.3083 O.3      332 DA      0.0000
   2108 C3'       -5.7527     5.2947  1065.5365 C.3      332 DA      0.0000
   2109 O3'       -4.9194     6.1288  1064.7475 O.3      332 DA      0.0000
   2110 C2'       -5.1963     3.8713  1065.3491 C.3      332 DA      0.0000
   2111 C1'       -3.8674     4.1486  1066.1037 C.3      332 DA      0.0000
   2112 N9        -3.2491     2.8347  1066.2491 N.ar     332 DA      0.0000
   2113 C8        -3.9037     1.6255  1066.3220 C.ar     332 DA      0.0000
   2114 N7        -3.0943     0.6026  1066.4366 N.ar     332 DA      0.0000
   2115 C5        -1.8169     1.1909  1066.4303 C.ar     332 DA      0.0000
   2116 C6        -0.5228     0.6099  1066.5302 C.ar     332 DA      0.0000
   2117 N6        -0.3049    -0.7026  1066.6530 N.pl3    332 DA      0.0000
   2118 N1         0.5014     1.5076  1066.4950 N.ar     332 DA      0.0000
   2119 C2         0.2807     2.8397  1066.3762 C.ar     332 DA      0.0000
   2120 N3        -0.9037     3.4513  1066.2847 N.ar     332 DA      0.0000
   2121 C4        -1.9063     2.5558  1066.3122 C.ar     332 DA      0.0000
   2122 H5'       -7.5543     5.4832  1067.7515 H        332 DA      0.0000
   2123 H5''      -6.3327     4.9943  1068.9699 H        332 DA      0.0000
   2124 H4'       -5.3715     6.5681  1067.2449 H        332 DA      0.0000
   2125 H3'       -6.8058     5.3746  1065.2669 H        332 DA      0.0000
   2126 H2'       -5.8079     3.1084  1065.8307 H        332 DA      0.0000
   2127 H2''      -5.0219     3.6426  1064.2977 H        332 DA      0.0000
   2128 H1'       -3.2272     4.8059  1065.5153 H        332 DA      0.0000
   2129 H8        -4.9789     1.5302  1066.2880 H        332 DA      0.0000
   2130 H2         1.1546     3.4738  1066.3530 H        332 DA      0.0000
   2131 H61       -1.0848    -1.3439  1066.6778 H        332 DA      0.0000
   2132 H62        0.6397    -1.0535  1066.7211 H        332 DA      0.0000
   2133 P         -5.5352     7.0456  1063.6066 P.3      331 DC      0.0000
   2134 OP1       -5.9879     8.2687  1064.3868 O.co2    331 DC      0.0000
   2135 OP2       -6.6283     6.3888  1062.8810 O.co2    331 DC      0.0000
   2136 O5'       -4.2253     7.2355  1062.6307 O.3      331 DC      0.0000
   2137 C5'       -2.9933     7.7060  1063.2997 C.3      331 DC      0.0000
   2138 C4'       -1.8118     7.0300  1062.6557 C.3      331 DC      0.0000
   2139 O4'       -1.4271     5.8179  1063.2928 O.3      331 DC      0.0000
   2140 C3'       -2.0552     6.6792  1061.1779 C.3      331 DC      0.0000
   2141 O3'       -0.8897     6.7563  1060.3666 O.3      331 DC      0.0000
   2142 C2'       -2.4638     5.1787  1061.3435 C.3      331 DC      0.0000
   2143 C1'       -1.2114     4.8559  1062.2391 C.3      331 DC      0.0000
   2144 N1        -1.2191     3.4362  1062.4770 N.am     331 DC      0.0000
   2145 C2        -0.0230     2.8131  1062.7941 C.2      331 DC      0.0000
   2146 O2         1.1062     3.2962  1062.9346 O.2      331 DC      0.0000
   2147 N3        -0.0372     1.4603  1062.9923 N.2      331 DC      0.0000
   2148 C4        -1.1834     0.7231  1062.8764 C.2      331 DC      0.0000
   2149 N4        -1.1507    -0.6012  1063.0924 N.pl3    331 DC      0.0000
   2150 C5        -2.4030     1.3763  1062.5467 C.2      331 DC      0.0000
   2151 C6        -2.3636     2.7001  1062.3550 C.2      331 DC      0.0000
   2152 H5'       -2.9042     8.7867  1063.1882 H        331 DC      0.0000
   2153 H5''      -3.0303     7.4488  1064.3583 H        331 DC      0.0000
   2154 H4'       -0.9663     7.7163  1062.7024 H        331 DC      0.0000
   2155 H3'       -2.8705     7.2689  1060.7588 H        331 DC      0.0000
   2156 H2'       -3.4136     5.0424  1061.8606 H        331 DC      0.0000
   2157 H2''      -2.4356     4.6419  1060.3953 H        331 DC      0.0000
   2158 H1'       -0.3054     5.1212  1061.6942 H        331 DC      0.0000
   2159 H5        -3.3267     0.8244  1062.4546 H        331 DC      0.0000
   2160 H6        -3.2785     3.2099  1062.0918 H        331 DC      0.0000
   2161 H41       -0.2796    -1.0523  1063.3329 H        331 DC      0.0000
   2162 H42       -1.9971    -1.1467  1063.0145 H        331 DC      0.0000
@<TRIPOS>BOND
     1      9     34 1
     2     42     66 1
     3     74     99 1
     4    107    131 1
     5    139    163 1
     6    171    195 1
     7    203    227 1
     8    235    257 1
     9    265    289 1
    10    327    352 1
    11    360    384 1
    12    392    417 1
    13    425    449 1
    14    457    481 1
    15    489    513 1
    16    521    545 1
    17    553    575 1
    18    583    607 1
    19      1      2 1
    20      1      3 1
    21      1      4 1
    22      4      5 1
    23      5      6 1
    24      6      7 1
    25      6      8 1
    26      7     11 1
    27      8      9 1
    28      8     10 1
    29     10     11 1
    30     11     12 1
    31     12     13 ar
    32     12     22 ar
    33     13     14 ar
    34     14     15 ar
    35     15     16 1
    36     15     22 ar
    37     16     17 2
    38     16     18 am
    39     18     19 1
    40     19     20 2
    41     19     21 2
    42     21     22 1
    43     34     35 1
    44     34     36 1
    45     34     37 1
    46     37     38 1
    47     38     39 1
    48     39     40 1
    49     39     41 1
    50     40     44 1
    51     41     42 1
    52     41     43 1
    53     43     44 1
    54     44     45 1
    55     45     46 am
    56     45     53 1
    57     46     47 2
    58     46     48 am
    59     48     49 am
    60     49     50 2
    61     49     51 1
    62     51     52 1
    63     51     53 2
    64     66     67 1
    65     66     68 1
    66     66     69 1
    67     69     70 1
    68     70     71 1
    69     71     72 1
    70     71     73 1
    71     72     76 1
    72     73     74 1
    73     73     75 1
    74     75     76 1
    75     76     77 1
    76     77     78 ar
    77     77     87 ar
    78     78     79 ar
    79     79     80 ar
    80     80     81 1
    81     80     87 ar
    82     81     82 2
    83     81     83 am
    84     83     84 1
    85     84     85 2
    86     84     86 2
    87     86     87 1
    88     99    100 1
    89     99    101 1
    90     99    102 1
    91    102    103 1
    92    103    104 1
    93    104    105 1
    94    104    106 1
    95    105    109 1
    96    106    107 1
    97    106    108 1
    98    108    109 1
    99    109    110 1
   100    110    111 ar
   101    110    119 ar
   102    111    112 ar
   103    112    113 ar
   104    113    114 ar
   105    113    119 ar
   106    114    115 1
   107    114    116 ar
   108    116    117 ar
   109    117    118 ar
   110    118    119 ar
   111    131    132 1
   112    131    133 1
   113    131    134 1
   114    134    135 1
   115    135    136 1
   116    136    137 1
   117    136    138 1
   118    137    141 1
   119    138    139 1
   120    138    140 1
   121    140    141 1
   122    141    142 1
   123    142    143 ar
   124    142    151 ar
   125    143    144 ar
   126    144    145 ar
   127    145    146 ar
   128    145    151 ar
   129    146    147 1
   130    146    148 ar
   131    148    149 ar
   132    149    150 ar
   133    150    151 ar
   134    163    164 1
   135    163    165 1
   136    163    166 1
   137    166    167 1
   138    167    168 1
   139    168    169 1
   140    168    170 1
   141    169    173 1
   142    170    171 1
   143    170    172 1
   144    172    173 1
   145    173    174 1
   146    174    175 am
   147    174    182 1
   148    175    176 2
   149    175    177 am
   150    177    178 am
   151    178    179 2
   152    178    180 1
   153    180    181 1
   154    180    182 2
   155    195    196 1
   156    195    197 1
   157    195    198 1
   158    198    199 1
   159    199    200 1
   160    200    201 1
   161    200    202 1
   162    201    205 1
   163    202    203 1
   164    202    204 1
   165    204    205 1
   166    205    206 1
   167    206    207 am
   168    206    214 1
   169    207    208 2
   170    207    209 am
   171    209    210 am
   172    210    211 2
   173    210    212 1
   174    212    213 1
   175    212    214 2
   176    227    228 1
   177    227    229 1
   178    227    230 1
   179    230    231 1
   180    231    232 1
   181    232    233 1
   182    232    234 1
   183    233    237 1
   184    234    235 1
   185    234    236 1
   186    236    237 1
   187    237    238 1
   188    238    239 am
   189    238    245 1
   190    239    240 2
   191    239    241 1
   192    241    242 2
   193    242    243 2
   194    242    244 2
   195    244    245 2
   196    257    258 1
   197    257    259 1
   198    257    260 1
   199    260    261 1
   200    261    262 1
   201    262    263 1
   202    262    264 1
   203    263    267 1
   204    264    265 1
   205    264    266 1
   206    266    267 1
   207    267    268 1
   208    268    269 ar
   209    268    277 ar
   210    269    270 ar
   211    270    271 ar
   212    271    272 ar
   213    271    277 ar
   214    272    273 1
   215    272    274 ar
   216    274    275 ar
   217    275    276 ar
   218    276    277 ar
   219    289    290 1
   220    289    291 1
   221    289    292 1
   222    292    293 1
   223    293    294 1
   224    294    295 1
   225    294    296 1
   226    295    299 1
   227    296    297 1
   228    296    298 1
   229    298    299 1
   230    299    300 1
   231    300    301 am
   232    300    307 1
   233    301    302 2
   234    301    303 1
   235    303    304 2
   236    304    305 2
   237    304    306 2
   238    306    307 2
   239    319    320 1
   240    319    321 1
   241    319    322 1
   242    322    323 1
   243    323    324 1
   244    324    325 1
   245    324    326 1
   246    325    329 1
   247    326    327 1
   248    326    328 1
   249    328    329 1
   250    329    330 1
   251    330    331 ar
   252    330    340 ar
   253    331    332 ar
   254    332    333 ar
   255    333    334 1
   256    333    340 ar
   257    334    335 2
   258    334    336 am
   259    336    337 1
   260    337    338 2
   261    337    339 2
   262    339    340 1
   263    352    353 1
   264    352    354 1
   265    352    355 1
   266    355    356 1
   267    356    357 1
   268    357    358 1
   269    357    359 1
   270    358    362 1
   271    359    360 1
   272    359    361 1
   273    361    362 1
   274    362    363 1
   275    363    364 am
   276    363    371 1
   277    364    365 2
   278    364    366 am
   279    366    367 am
   280    367    368 2
   281    367    369 1
   282    369    370 1
   283    369    371 2
   284    384    385 1
   285    384    386 1
   286    384    387 1
   287    387    388 1
   288    388    389 1
   289    389    390 1
   290    389    391 1
   291    390    394 1
   292    391    392 1
   293    391    393 1
   294    393    394 1
   295    394    395 1
   296    395    396 ar
   297    395    405 ar
   298    396    397 ar
   299    397    398 ar
   300    398    399 1
   301    398    405 ar
   302    399    400 2
   303    399    401 am
   304    401    402 1
   305    402    403 2
   306    402    404 2
   307    404    405 1
   308    417    418 1
   309    417    419 1
   310    417    420 1
   311    420    421 1
   312    421    422 1
   313    422    423 1
   314    422    424 1
   315    423    427 1
   316    424    425 1
   317    424    426 1
   318    426    427 1
   319    427    428 1
   320    428    429 ar
   321    428    437 ar
   322    429    430 ar
   323    430    431 ar
   324    431    432 ar
   325    431    437 ar
   326    432    433 1
   327    432    434 ar
   328    434    435 ar
   329    435    436 ar
   330    436    437 ar
   331    449    450 1
   332    449    451 1
   333    449    452 1
   334    452    453 1
   335    453    454 1
   336    454    455 1
   337    454    456 1
   338    455    459 1
   339    456    457 1
   340    456    458 1
   341    458    459 1
   342    459    460 1
   343    460    461 ar
   344    460    469 ar
   345    461    462 ar
   346    462    463 ar
   347    463    464 ar
   348    463    469 ar
   349    464    465 1
   350    464    466 ar
   351    466    467 ar
   352    467    468 ar
   353    468    469 ar
   354    481    482 1
   355    481    483 1
   356    481    484 1
   357    484    485 1
   358    485    486 1
   359    486    487 1
   360    486    488 1
   361    487    491 1
   362    488    489 1
   363    488    490 1
   364    490    491 1
   365    491    492 1
   366    492    493 am
   367    492    500 1
   368    493    494 2
   369    493    495 am
   370    495    496 am
   371    496    497 2
   372    496    498 1
   373    498    499 1
   374    498    500 2
   375    513    514 1
   376    513    515 1
   377    513    516 1
   378    516    517 1
   379    517    518 1
   380    518    519 1
   381    518    520 1
   382    519    523 1
   383    520    521 1
   384    520    522 1
   385    522    523 1
   386    523    524 1
   387    524    525 am
   388    524    532 1
   389    525    526 2
   390    525    527 am
   391    527    528 am
   392    528    529 2
   393    528    530 1
   394    530    531 1
   395    530    532 2
   396    545    546 1
   397    545    547 1
   398    545    548 1
   399    548    549 1
   400    549    550 1
   401    550    551 1
   402    550    552 1
   403    551    555 1
   404    552    553 1
   405    552    554 1
   406    554    555 1
   407    555    556 1
   408    556    557 am
   409    556    563 1
   410    557    558 2
   411    557    559 1
   412    559    560 2
   413    560    561 2
   414    560    562 2
   415    562    563 2
   416    575    576 1
   417    575    577 1
   418    575    578 1
   419    578    579 1
   420    579    580 1
   421    580    581 1
   422    580    582 1
   423    581    585 1
   424    582    583 1
   425    582    584 1
   426    584    585 1
   427    585    586 1
   428    586    587 ar
   429    586    595 ar
   430    587    588 ar
   431    588    589 ar
   432    589    590 ar
   433    589    595 ar
   434    590    591 1
   435    590    592 ar
   436    592    593 ar
   437    593    594 ar
   438    594    595 ar
   439    607    608 1
   440    607    609 1
   441    607    610 1
   442    610    611 1
   443    611    612 1
   444    612    613 1
   445    612    614 1
   446    613    617 1
   447    614    615 1
   448    614    616 1
   449    616    617 1
   450    617    618 1
   451    618    619 am
   452    618    625 1
   453    619    620 2
   454    619    621 1
   455    621    622 2
   456    622    623 2
   457    622    624 2
   458    624    625 2
   459     23      5 1
   460     24      5 1
   461     25      6 1
   462     26      8 1
   463     27     10 1
   464     28     10 1
   465     29     11 1
   466     30     13 1
   467     31     18 1
   468     54     38 1
   469     55     38 1
   470     56     39 1
   471     57     41 1
   472     58     43 1
   473     59     43 1
   474     60     44 1
   475     61     48 1
   476     62     53 1
   477     88     70 1
   478     89     70 1
   479     90     71 1
   480     91     73 1
   481     92     75 1
   482     93     75 1
   483     94     76 1
   484     95     78 1
   485     96     83 1
   486    120    103 1
   487    121    103 1
   488    122    104 1
   489    123    106 1
   490    124    108 1
   491    125    108 1
   492    126    109 1
   493    127    111 1
   494    128    117 1
   495    152    135 1
   496    153    135 1
   497    154    136 1
   498    155    138 1
   499    156    140 1
   500    157    140 1
   501    158    141 1
   502    159    143 1
   503    160    149 1
   504    183    167 1
   505    184    167 1
   506    185    168 1
   507    186    170 1
   508    187    172 1
   509    188    172 1
   510    189    173 1
   511    190    177 1
   512    191    182 1
   513    215    199 1
   514    216    199 1
   515    217    200 1
   516    218    202 1
   517    219    204 1
   518    220    204 1
   519    221    205 1
   520    222    209 1
   521    223    214 1
   522    246    231 1
   523    247    231 1
   524    248    232 1
   525    249    234 1
   526    250    236 1
   527    251    236 1
   528    252    237 1
   529    253    244 1
   530    254    245 1
   531    278    261 1
   532    279    261 1
   533    280    262 1
   534    281    264 1
   535    282    266 1
   536    283    266 1
   537    284    267 1
   538    285    269 1
   539    286    275 1
   540    308    293 1
   541    309    293 1
   542    310    294 1
   543    311    296 1
   544    312    298 1
   545    313    298 1
   546    314    299 1
   547    315    306 1
   548    316    307 1
   549    341    323 1
   550    342    323 1
   551    343    324 1
   552    344    326 1
   553    345    328 1
   554    346    328 1
   555    347    329 1
   556    348    331 1
   557    349    336 1
   558    372    356 1
   559    373    356 1
   560    374    357 1
   561    375    359 1
   562    376    361 1
   563    377    361 1
   564    378    362 1
   565    379    366 1
   566    380    371 1
   567    406    388 1
   568    407    388 1
   569    408    389 1
   570    409    391 1
   571    410    393 1
   572    411    393 1
   573    412    394 1
   574    413    396 1
   575    414    401 1
   576    438    421 1
   577    439    421 1
   578    440    422 1
   579    441    424 1
   580    442    426 1
   581    443    426 1
   582    444    427 1
   583    445    429 1
   584    446    435 1
   585    470    453 1
   586    471    453 1
   587    472    454 1
   588    473    456 1
   589    474    458 1
   590    475    458 1
   591    476    459 1
   592    477    461 1
   593    478    467 1
   594    501    485 1
   595    502    485 1
   596    503    486 1
   597    504    488 1
   598    505    490 1
   599    506    490 1
   600    507    491 1
   601    508    495 1
   602    509    500 1
   603    533    517 1
   604    534    517 1
   605    535    518 1
   606    536    520 1
   607    537    522 1
   608    538    522 1
   609    539    523 1
   610    540    527 1
   611    541    532 1
   612    564    549 1
   613    565    549 1
   614    566    550 1
   615    567    552 1
   616    568    554 1
   617    569    554 1
   618    570    555 1
   619    571    562 1
   620    572    563 1
   621    596    579 1
   622    597    579 1
   623    598    580 1
   624    599    582 1
   625    600    584 1
   626    601    584 1
   627    602    585 1
   628    603    587 1
   629    604    593 1
   630    626    611 1
   631    627    611 1
   632    628    612 1
   633    629    614 1
   634    630    616 1
   635    631    616 1
   636    632    617 1
   637    633    624 1
   638    634    625 1
   639     32     20 1
   640     33     20 1
   641     97     85 1
   642     98     85 1
   643    255    243 1
   644    256    243 1
   645    317    305 1
   646    318    305 1
   647    350    338 1
   648    351    338 1
   649    415    403 1
   650    416    403 1
   651    573    561 1
   652    574    561 1
   653    635    623 1
   654    636    623 1
   655    129    115 1
   656    130    115 1
   657    161    147 1
   658    162    147 1
   659    287    273 1
   660    288    273 1
   661    447    433 1
   662    448    433 1
   663    479    465 1
   664    480    465 1
   665    605    591 1
   666    606    591 1
   667     63     52 1
   668     64     52 1
   669     65     52 1
   670    192    181 1
   671    193    181 1
   672    194    181 1
   673    224    213 1
   674    225    213 1
   675    226    213 1
   676    381    370 1
   677    382    370 1
   678    383    370 1
   679    510    499 1
   680    511    499 1
   681    512    499 1
   682    542    531 1
   683    543    531 1
   684    544    531 1
   685    297    637 1
   686    319   1251 1
   687    645    670 1
   688    678    702 1
   689    710    735 1
   690    743    767 1
   691    775    799 1
   692    807    831 1
   693    839    863 1
   694    871    893 1
   695    901    925 1
   696    963    988 1
   697    996   1020 1
   698   1028   1053 1
   699   1061   1085 1
   700   1093   1117 1
   701   1125   1149 1
   702   1157   1181 1
   703   1189   1211 1
   704   1219   1243 1
   705    637    638 1
   706    637    639 1
   707    637    640 1
   708    640    641 1
   709    641    642 1
   710    642    643 1
   711    642    644 1
   712    643    647 1
   713    644    645 1
   714    644    646 1
   715    646    647 1
   716    647    648 1
   717    648    649 ar
   718    648    658 ar
   719    649    650 ar
   720    650    651 ar
   721    651    652 1
   722    651    658 ar
   723    652    653 2
   724    652    654 am
   725    654    655 1
   726    655    656 2
   727    655    657 2
   728    657    658 1
   729    670    671 1
   730    670    672 1
   731    670    673 1
   732    673    674 1
   733    674    675 1
   734    675    676 1
   735    675    677 1
   736    676    680 1
   737    677    678 1
   738    677    679 1
   739    679    680 1
   740    680    681 1
   741    681    682 am
   742    681    689 1
   743    682    683 2
   744    682    684 am
   745    684    685 am
   746    685    686 2
   747    685    687 1
   748    687    688 1
   749    687    689 2
   750    702    703 1
   751    702    704 1
   752    702    705 1
   753    705    706 1
   754    706    707 1
   755    707    708 1
   756    707    709 1
   757    708    712 1
   758    709    710 1
   759    709    711 1
   760    711    712 1
   761    712    713 1
   762    713    714 ar
   763    713    723 ar
   764    714    715 ar
   765    715    716 ar
   766    716    717 1
   767    716    723 ar
   768    717    718 2
   769    717    719 am
   770    719    720 1
   771    720    721 2
   772    720    722 2
   773    722    723 1
   774    735    736 1
   775    735    737 1
   776    735    738 1
   777    738    739 1
   778    739    740 1
   779    740    741 1
   780    740    742 1
   781    741    745 1
   782    742    743 1
   783    742    744 1
   784    744    745 1
   785    745    746 1
   786    746    747 ar
   787    746    755 ar
   788    747    748 ar
   789    748    749 ar
   790    749    750 ar
   791    749    755 ar
   792    750    751 1
   793    750    752 ar
   794    752    753 ar
   795    753    754 ar
   796    754    755 ar
   797    767    768 1
   798    767    769 1
   799    767    770 1
   800    770    771 1
   801    771    772 1
   802    772    773 1
   803    772    774 1
   804    773    777 1
   805    774    775 1
   806    774    776 1
   807    776    777 1
   808    777    778 1
   809    778    779 ar
   810    778    787 ar
   811    779    780 ar
   812    780    781 ar
   813    781    782 ar
   814    781    787 ar
   815    782    783 1
   816    782    784 ar
   817    784    785 ar
   818    785    786 ar
   819    786    787 ar
   820    799    800 1
   821    799    801 1
   822    799    802 1
   823    802    803 1
   824    803    804 1
   825    804    805 1
   826    804    806 1
   827    805    809 1
   828    806    807 1
   829    806    808 1
   830    808    809 1
   831    809    810 1
   832    810    811 am
   833    810    818 1
   834    811    812 2
   835    811    813 am
   836    813    814 am
   837    814    815 2
   838    814    816 1
   839    816    817 1
   840    816    818 2
   841    831    832 1
   842    831    833 1
   843    831    834 1
   844    834    835 1
   845    835    836 1
   846    836    837 1
   847    836    838 1
   848    837    841 1
   849    838    839 1
   850    838    840 1
   851    840    841 1
   852    841    842 1
   853    842    843 am
   854    842    850 1
   855    843    844 2
   856    843    845 am
   857    845    846 am
   858    846    847 2
   859    846    848 1
   860    848    849 1
   861    848    850 2
   862    863    864 1
   863    863    865 1
   864    863    866 1
   865    866    867 1
   866    867    868 1
   867    868    869 1
   868    868    870 1
   869    869    873 1
   870    870    871 1
   871    870    872 1
   872    872    873 1
   873    873    874 1
   874    874    875 am
   875    874    881 1
   876    875    876 2
   877    875    877 1
   878    877    878 2
   879    878    879 2
   880    878    880 2
   881    880    881 2
   882    893    894 1
   883    893    895 1
   884    893    896 1
   885    896    897 1
   886    897    898 1
   887    898    899 1
   888    898    900 1
   889    899    903 1
   890    900    901 1
   891    900    902 1
   892    902    903 1
   893    903    904 1
   894    904    905 ar
   895    904    913 ar
   896    905    906 ar
   897    906    907 ar
   898    907    908 ar
   899    907    913 ar
   900    908    909 1
   901    908    910 ar
   902    910    911 ar
   903    911    912 ar
   904    912    913 ar
   905    925    926 1
   906    925    927 1
   907    925    928 1
   908    928    929 1
   909    929    930 1
   910    930    931 1
   911    930    932 1
   912    931    935 1
   913    932    933 1
   914    932    934 1
   915    934    935 1
   916    935    936 1
   917    936    937 am
   918    936    943 1
   919    937    938 2
   920    937    939 1
   921    939    940 2
   922    940    941 2
   923    940    942 2
   924    942    943 2
   925    955    956 1
   926    955    957 1
   927    955    958 1
   928    958    959 1
   929    959    960 1
   930    960    961 1
   931    960    962 1
   932    961    965 1
   933    962    963 1
   934    962    964 1
   935    964    965 1
   936    965    966 1
   937    966    967 ar
   938    966    976 ar
   939    967    968 ar
   940    968    969 ar
   941    969    970 1
   942    969    976 ar
   943    970    971 2
   944    970    972 am
   945    972    973 1
   946    973    974 2
   947    973    975 2
   948    975    976 1
   949    988    989 1
   950    988    990 1
   951    988    991 1
   952    991    992 1
   953    992    993 1
   954    993    994 1
   955    993    995 1
   956    994    998 1
   957    995    996 1
   958    995    997 1
   959    997    998 1
   960    998    999 1
   961    999   1000 am
   962    999   1007 1
   963   1000   1001 2
   964   1000   1002 am
   965   1002   1003 am
   966   1003   1004 2
   967   1003   1005 1
   968   1005   1006 1
   969   1005   1007 2
   970   1020   1021 1
   971   1020   1022 1
   972   1020   1023 1
   973   1023   1024 1
   974   1024   1025 1
   975   1025   1026 1
   976   1025   1027 1
   977   1026   1030 1
   978   1027   1028 1
   979   1027   1029 1
   980   1029   1030 1
   981   1030   1031 1
   982   1031   1032 ar
   983   1031   1041 ar
   984   1032   1033 ar
   985   1033   1034 ar
   986   1034   1035 1
   987   1034   1041 ar
   988   1035   1036 2
   989   1035   1037 am
   990   1037   1038 1
   991   1038   1039 2
   992   1038   1040 2
   993   1040   1041 1
   994   1053   1054 1
   995   1053   1055 1
   996   1053   1056 1
   997   1056   1057 1
   998   1057   1058 1
   999   1058   1059 1
  1000   1058   1060 1
  1001   1059   1063 1
  1002   1060   1061 1
  1003   1060   1062 1
  1004   1062   1063 1
  1005   1063   1064 1
  1006   1064   1065 ar
  1007   1064   1073 ar
  1008   1065   1066 ar
  1009   1066   1067 ar
  1010   1067   1068 ar
  1011   1067   1073 ar
  1012   1068   1069 1
  1013   1068   1070 ar
  1014   1070   1071 ar
  1015   1071   1072 ar
  1016   1072   1073 ar
  1017   1085   1086 1
  1018   1085   1087 1
  1019   1085   1088 1
  1020   1088   1089 1
  1021   1089   1090 1
  1022   1090   1091 1
  1023   1090   1092 1
  1024   1091   1095 1
  1025   1092   1093 1
  1026   1092   1094 1
  1027   1094   1095 1
  1028   1095   1096 1
  1029   1096   1097 ar
  1030   1096   1105 ar
  1031   1097   1098 ar
  1032   1098   1099 ar
  1033   1099   1100 ar
  1034   1099   1105 ar
  1035   1100   1101 1
  1036   1100   1102 ar
  1037   1102   1103 ar
  1038   1103   1104 ar
  1039   1104   1105 ar
  1040   1117   1118 1
  1041   1117   1119 1
  1042   1117   1120 1
  1043   1120   1121 1
  1044   1121   1122 1
  1045   1122   1123 1
  1046   1122   1124 1
  1047   1123   1127 1
  1048   1124   1125 1
  1049   1124   1126 1
  1050   1126   1127 1
  1051   1127   1128 1
  1052   1128   1129 am
  1053   1128   1136 1
  1054   1129   1130 2
  1055   1129   1131 am
  1056   1131   1132 am
  1057   1132   1133 2
  1058   1132   1134 1
  1059   1134   1135 1
  1060   1134   1136 2
  1061   1149   1150 1
  1062   1149   1151 1
  1063   1149   1152 1
  1064   1152   1153 1
  1065   1153   1154 1
  1066   1154   1155 1
  1067   1154   1156 1
  1068   1155   1159 1
  1069   1156   1157 1
  1070   1156   1158 1
  1071   1158   1159 1
  1072   1159   1160 1
  1073   1160   1161 am
  1074   1160   1168 1
  1075   1161   1162 2
  1076   1161   1163 am
  1077   1163   1164 am
  1078   1164   1165 2
  1079   1164   1166 1
  1080   1166   1167 1
  1081   1166   1168 2
  1082   1181   1182 1
  1083   1181   1183 1
  1084   1181   1184 1
  1085   1184   1185 1
  1086   1185   1186 1
  1087   1186   1187 1
  1088   1186   1188 1
  1089   1187   1191 1
  1090   1188   1189 1
  1091   1188   1190 1
  1092   1190   1191 1
  1093   1191   1192 1
  1094   1192   1193 am
  1095   1192   1199 1
  1096   1193   1194 2
  1097   1193   1195 1
  1098   1195   1196 2
  1099   1196   1197 2
  1100   1196   1198 2
  1101   1198   1199 2
  1102   1211   1212 1
  1103   1211   1213 1
  1104   1211   1214 1
  1105   1214   1215 1
  1106   1215   1216 1
  1107   1216   1217 1
  1108   1216   1218 1
  1109   1217   1221 1
  1110   1218   1219 1
  1111   1218   1220 1
  1112   1220   1221 1
  1113   1221   1222 1
  1114   1222   1223 ar
  1115   1222   1231 ar
  1116   1223   1224 ar
  1117   1224   1225 ar
  1118   1225   1226 ar
  1119   1225   1231 ar
  1120   1226   1227 1
  1121   1226   1228 ar
  1122   1228   1229 ar
  1123   1229   1230 ar
  1124   1230   1231 ar
  1125   1243   1244 1
  1126   1243   1245 1
  1127   1243   1246 1
  1128   1246   1247 1
  1129   1247   1248 1
  1130   1248   1249 1
  1131   1248   1250 1
  1132   1249   1253 1
  1133   1250   1251 1
  1134   1250   1252 1
  1135   1252   1253 1
  1136   1253   1254 1
  1137   1254   1255 am
  1138   1254   1261 1
  1139   1255   1256 2
  1140   1255   1257 1
  1141   1257   1258 2
  1142   1258   1259 2
  1143   1258   1260 2
  1144   1260   1261 2
  1145    659    641 1
  1146    660    641 1
  1147    661    642 1
  1148    662    644 1
  1149    663    646 1
  1150    664    646 1
  1151    665    647 1
  1152    666    649 1
  1153    667    654 1
  1154    690    674 1
  1155    691    674 1
  1156    692    675 1
  1157    693    677 1
  1158    694    679 1
  1159    695    679 1
  1160    696    680 1
  1161    697    684 1
  1162    698    689 1
  1163    724    706 1
  1164    725    706 1
  1165    726    707 1
  1166    727    709 1
  1167    728    711 1
  1168    729    711 1
  1169    730    712 1
  1170    731    714 1
  1171    732    719 1
  1172    756    739 1
  1173    757    739 1
  1174    758    740 1
  1175    759    742 1
  1176    760    744 1
  1177    761    744 1
  1178    762    745 1
  1179    763    747 1
  1180    764    753 1
  1181    788    771 1
  1182    789    771 1
  1183    790    772 1
  1184    791    774 1
  1185    792    776 1
  1186    793    776 1
  1187    794    777 1
  1188    795    779 1
  1189    796    785 1
  1190    819    803 1
  1191    820    803 1
  1192    821    804 1
  1193    822    806 1
  1194    823    808 1
  1195    824    808 1
  1196    825    809 1
  1197    826    813 1
  1198    827    818 1
  1199    851    835 1
  1200    852    835 1
  1201    853    836 1
  1202    854    838 1
  1203    855    840 1
  1204    856    840 1
  1205    857    841 1
  1206    858    845 1
  1207    859    850 1
  1208    882    867 1
  1209    883    867 1
  1210    884    868 1
  1211    885    870 1
  1212    886    872 1
  1213    887    872 1
  1214    888    873 1
  1215    889    880 1
  1216    890    881 1
  1217    914    897 1
  1218    915    897 1
  1219    916    898 1
  1220    917    900 1
  1221    918    902 1
  1222    919    902 1
  1223    920    903 1
  1224    921    905 1
  1225    922    911 1
  1226    944    929 1
  1227    945    929 1
  1228    946    930 1
  1229    947    932 1
  1230    948    934 1
  1231    949    934 1
  1232    950    935 1
  1233    951    942 1
  1234    952    943 1
  1235    977    959 1
  1236    978    959 1
  1237    979    960 1
  1238    980    962 1
  1239    981    964 1
  1240    982    964 1
  1241    983    965 1
  1242    984    967 1
  1243    985    972 1
  1244   1008    992 1
  1245   1009    992 1
  1246   1010    993 1
  1247   1011    995 1
  1248   1012    997 1
  1249   1013    997 1
  1250   1014    998 1
  1251   1015   1002 1
  1252   1016   1007 1
  1253   1042   1024 1
  1254   1043   1024 1
  1255   1044   1025 1
  1256   1045   1027 1
  1257   1046   1029 1
  1258   1047   1029 1
  1259   1048   1030 1
  1260   1049   1032 1
  1261   1050   1037 1
  1262   1074   1057 1
  1263   1075   1057 1
  1264   1076   1058 1
  1265   1077   1060 1
  1266   1078   1062 1
  1267   1079   1062 1
  1268   1080   1063 1
  1269   1081   1065 1
  1270   1082   1071 1
  1271   1106   1089 1
  1272   1107   1089 1
  1273   1108   1090 1
  1274   1109   1092 1
  1275   1110   1094 1
  1276   1111   1094 1
  1277   1112   1095 1
  1278   1113   1097 1
  1279   1114   1103 1
  1280   1137   1121 1
  1281   1138   1121 1
  1282   1139   1122 1
  1283   1140   1124 1
  1284   1141   1126 1
  1285   1142   1126 1
  1286   1143   1127 1
  1287   1144   1131 1
  1288   1145   1136 1
  1289   1169   1153 1
  1290   1170   1153 1
  1291   1171   1154 1
  1292   1172   1156 1
  1293   1173   1158 1
  1294   1174   1158 1
  1295   1175   1159 1
  1296   1176   1163 1
  1297   1177   1168 1
  1298   1200   1185 1
  1299   1201   1185 1
  1300   1202   1186 1
  1301   1203   1188 1
  1302   1204   1190 1
  1303   1205   1190 1
  1304   1206   1191 1
  1305   1207   1198 1
  1306   1208   1199 1
  1307   1232   1215 1
  1308   1233   1215 1
  1309   1234   1216 1
  1310   1235   1218 1
  1311   1236   1220 1
  1312   1237   1220 1
  1313   1238   1221 1
  1314   1239   1223 1
  1315   1240   1229 1
  1316   1262   1247 1
  1317   1263   1247 1
  1318   1264   1248 1
  1319   1265   1250 1
  1320   1266   1252 1
  1321   1267   1252 1
  1322   1268   1253 1
  1323   1269   1260 1
  1324   1270   1261 1
  1325    668    656 1
  1326    669    656 1
  1327    733    721 1
  1328    734    721 1
  1329    891    879 1
  1330    892    879 1
  1331    953    941 1
  1332    954    941 1
  1333    986    974 1
  1334    987    974 1
  1335   1051   1039 1
  1336   1052   1039 1
  1337   1209   1197 1
  1338   1210   1197 1
  1339   1271   1259 1
  1340   1272   1259 1
  1341    765    751 1
  1342    766    751 1
  1343    797    783 1
  1344    798    783 1
  1345    923    909 1
  1346    924    909 1
  1347   1083   1069 1
  1348   1084   1069 1
  1349   1115   1101 1
  1350   1116   1101 1
  1351   1241   1227 1
  1352   1242   1227 1
  1353    699    688 1
  1354    700    688 1
  1355    701    688 1
  1356    828    817 1
  1357    829    817 1
  1358    830    817 1
  1359    860    849 1
  1360    861    849 1
  1361    862    849 1
  1362   1017   1006 1
  1363   1018   1006 1
  1364   1019   1006 1
  1365   1146   1135 1
  1366   1147   1135 1
  1367   1148   1135 1
  1368   1178   1167 1
  1369   1179   1167 1
  1370   1180   1167 1
  1371    933   1273 1
  1372    955   1887 1
  1373   1281   1306 1
  1374   1314   1338 1
  1375   1346   1371 1
  1376   1379   1403 1
  1377   1411   1435 1
  1378   1443   1467 1
  1379   1475   1499 1
  1380   1507   1529 1
  1381   1537   1561 1
  1382   1599   1624 1
  1383   1632   1656 1
  1384   1664   1689 1
  1385   1697   1721 1
  1386   1729   1753 1
  1387   1761   1785 1
  1388   1793   1817 1
  1389   1825   1847 1
  1390   1855   1879 1
  1391   1273   1274 1
  1392   1273   1275 1
  1393   1273   1276 1
  1394   1276   1277 1
  1395   1277   1278 1
  1396   1278   1279 1
  1397   1278   1280 1
  1398   1279   1283 1
  1399   1280   1281 1
  1400   1280   1282 1
  1401   1282   1283 1
  1402   1283   1284 1
  1403   1284   1285 ar
  1404   1284   1294 ar
  1405   1285   1286 ar
  1406   1286   1287 ar
  1407   1287   1288 1
  1408   1287   1294 ar
  1409   1288   1289 2
  1410   1288   1290 am
  1411   1290   1291 1
  1412   1291   1292 2
  1413   1291   1293 2
  1414   1293   1294 1
  1415   1306   1307 1
  1416   1306   1308 1
  1417   1306   1309 1
  1418   1309   1310 1
  1419   1310   1311 1
  1420   1311   1312 1
  1421   1311   1313 1
  1422   1312   1316 1
  1423   1313   1314 1
  1424   1313   1315 1
  1425   1315   1316 1
  1426   1316   1317 1
  1427   1317   1318 am
  1428   1317   1325 1
  1429   1318   1319 2
  1430   1318   1320 am
  1431   1320   1321 am
  1432   1321   1322 2
  1433   1321   1323 1
  1434   1323   1324 1
  1435   1323   1325 2
  1436   1338   1339 1
  1437   1338   1340 1
  1438   1338   1341 1
  1439   1341   1342 1
  1440   1342   1343 1
  1441   1343   1344 1
  1442   1343   1345 1
  1443   1344   1348 1
  1444   1345   1346 1
  1445   1345   1347 1
  1446   1347   1348 1
  1447   1348   1349 1
  1448   1349   1350 ar
  1449   1349   1359 ar
  1450   1350   1351 ar
  1451   1351   1352 ar
  1452   1352   1353 1
  1453   1352   1359 ar
  1454   1353   1354 2
  1455   1353   1355 am
  1456   1355   1356 1
  1457   1356   1357 2
  1458   1356   1358 2
  1459   1358   1359 1
  1460   1371   1372 1
  1461   1371   1373 1
  1462   1371   1374 1
  1463   1374   1375 1
  1464   1375   1376 1
  1465   1376   1377 1
  1466   1376   1378 1
  1467   1377   1381 1
  1468   1378   1379 1
  1469   1378   1380 1
  1470   1380   1381 1
  1471   1381   1382 1
  1472   1382   1383 ar
  1473   1382   1391 ar
  1474   1383   1384 ar
  1475   1384   1385 ar
  1476   1385   1386 ar
  1477   1385   1391 ar
  1478   1386   1387 1
  1479   1386   1388 ar
  1480   1388   1389 ar
  1481   1389   1390 ar
  1482   1390   1391 ar
  1483   1403   1404 1
  1484   1403   1405 1
  1485   1403   1406 1
  1486   1406   1407 1
  1487   1407   1408 1
  1488   1408   1409 1
  1489   1408   1410 1
  1490   1409   1413 1
  1491   1410   1411 1
  1492   1410   1412 1
  1493   1412   1413 1
  1494   1413   1414 1
  1495   1414   1415 ar
  1496   1414   1423 ar
  1497   1415   1416 ar
  1498   1416   1417 ar
  1499   1417   1418 ar
  1500   1417   1423 ar
  1501   1418   1419 1
  1502   1418   1420 ar
  1503   1420   1421 ar
  1504   1421   1422 ar
  1505   1422   1423 ar
  1506   1435   1436 1
  1507   1435   1437 1
  1508   1435   1438 1
  1509   1438   1439 1
  1510   1439   1440 1
  1511   1440   1441 1
  1512   1440   1442 1
  1513   1441   1445 1
  1514   1442   1443 1
  1515   1442   1444 1
  1516   1444   1445 1
  1517   1445   1446 1
  1518   1446   1447 am
  1519   1446   1454 1
  1520   1447   1448 2
  1521   1447   1449 am
  1522   1449   1450 am
  1523   1450   1451 2
  1524   1450   1452 1
  1525   1452   1453 1
  1526   1452   1454 2
  1527   1467   1468 1
  1528   1467   1469 1
  1529   1467   1470 1
  1530   1470   1471 1
  1531   1471   1472 1
  1532   1472   1473 1
  1533   1472   1474 1
  1534   1473   1477 1
  1535   1474   1475 1
  1536   1474   1476 1
  1537   1476   1477 1
  1538   1477   1478 1
  1539   1478   1479 am
  1540   1478   1486 1
  1541   1479   1480 2
  1542   1479   1481 am
  1543   1481   1482 am
  1544   1482   1483 2
  1545   1482   1484 1
  1546   1484   1485 1
  1547   1484   1486 2
  1548   1499   1500 1
  1549   1499   1501 1
  1550   1499   1502 1
  1551   1502   1503 1
  1552   1503   1504 1
  1553   1504   1505 1
  1554   1504   1506 1
  1555   1505   1509 1
  1556   1506   1507 1
  1557   1506   1508 1
  1558   1508   1509 1
  1559   1509   1510 1
  1560   1510   1511 am
  1561   1510   1517 1
  1562   1511   1512 2
  1563   1511   1513 1
  1564   1513   1514 2
  1565   1514   1515 2
  1566   1514   1516 2
  1567   1516   1517 2
  1568   1529   1530 1
  1569   1529   1531 1
  1570   1529   1532 1
  1571   1532   1533 1
  1572   1533   1534 1
  1573   1534   1535 1
  1574   1534   1536 1
  1575   1535   1539 1
  1576   1536   1537 1
  1577   1536   1538 1
  1578   1538   1539 1
  1579   1539   1540 1
  1580   1540   1541 ar
  1581   1540   1549 ar
  1582   1541   1542 ar
  1583   1542   1543 ar
  1584   1543   1544 ar
  1585   1543   1549 ar
  1586   1544   1545 1
  1587   1544   1546 ar
  1588   1546   1547 ar
  1589   1547   1548 ar
  1590   1548   1549 ar
  1591   1561   1562 1
  1592   1561   1563 1
  1593   1561   1564 1
  1594   1564   1565 1
  1595   1565   1566 1
  1596   1566   1567 1
  1597   1566   1568 1
  1598   1567   1571 1
  1599   1568   1569 1
  1600   1568   1570 1
  1601   1570   1571 1
  1602   1571   1572 1
  1603   1572   1573 am
  1604   1572   1579 1
  1605   1573   1574 2
  1606   1573   1575 1
  1607   1575   1576 2
  1608   1576   1577 2
  1609   1576   1578 2
  1610   1578   1579 2
  1611   1591   1592 1
  1612   1591   1593 1
  1613   1591   1594 1
  1614   1594   1595 1
  1615   1595   1596 1
  1616   1596   1597 1
  1617   1596   1598 1
  1618   1597   1601 1
  1619   1598   1599 1
  1620   1598   1600 1
  1621   1600   1601 1
  1622   1601   1602 1
  1623   1602   1603 ar
  1624   1602   1612 ar
  1625   1603   1604 ar
  1626   1604   1605 ar
  1627   1605   1606 1
  1628   1605   1612 ar
  1629   1606   1607 2
  1630   1606   1608 am
  1631   1608   1609 1
  1632   1609   1610 2
  1633   1609   1611 2
  1634   1611   1612 1
  1635   1624   1625 1
  1636   1624   1626 1
  1637   1624   1627 1
  1638   1627   1628 1
  1639   1628   1629 1
  1640   1629   1630 1
  1641   1629   1631 1
  1642   1630   1634 1
  1643   1631   1632 1
  1644   1631   1633 1
  1645   1633   1634 1
  1646   1634   1635 1
  1647   1635   1636 am
  1648   1635   1643 1
  1649   1636   1637 2
  1650   1636   1638 am
  1651   1638   1639 am
  1652   1639   1640 2
  1653   1639   1641 1
  1654   1641   1642 1
  1655   1641   1643 2
  1656   1656   1657 1
  1657   1656   1658 1
  1658   1656   1659 1
  1659   1659   1660 1
  1660   1660   1661 1
  1661   1661   1662 1
  1662   1661   1663 1
  1663   1662   1666 1
  1664   1663   1664 1
  1665   1663   1665 1
  1666   1665   1666 1
  1667   1666   1667 1
  1668   1667   1668 ar
  1669   1667   1677 ar
  1670   1668   1669 ar
  1671   1669   1670 ar
  1672   1670   1671 1
  1673   1670   1677 ar
  1674   1671   1672 2
  1675   1671   1673 am
  1676   1673   1674 1
  1677   1674   1675 2
  1678   1674   1676 2
  1679   1676   1677 1
  1680   1689   1690 1
  1681   1689   1691 1
  1682   1689   1692 1
  1683   1692   1693 1
  1684   1693   1694 1
  1685   1694   1695 1
  1686   1694   1696 1
  1687   1695   1699 1
  1688   1696   1697 1
  1689   1696   1698 1
  1690   1698   1699 1
  1691   1699   1700 1
  1692   1700   1701 ar
  1693   1700   1709 ar
  1694   1701   1702 ar
  1695   1702   1703 ar
  1696   1703   1704 ar
  1697   1703   1709 ar
  1698   1704   1705 1
  1699   1704   1706 ar
  1700   1706   1707 ar
  1701   1707   1708 ar
  1702   1708   1709 ar
  1703   1721   1722 1
  1704   1721   1723 1
  1705   1721   1724 1
  1706   1724   1725 1
  1707   1725   1726 1
  1708   1726   1727 1
  1709   1726   1728 1
  1710   1727   1731 1
  1711   1728   1729 1
  1712   1728   1730 1
  1713   1730   1731 1
  1714   1731   1732 1
  1715   1732   1733 ar
  1716   1732   1741 ar
  1717   1733   1734 ar
  1718   1734   1735 ar
  1719   1735   1736 ar
  1720   1735   1741 ar
  1721   1736   1737 1
  1722   1736   1738 ar
  1723   1738   1739 ar
  1724   1739   1740 ar
  1725   1740   1741 ar
  1726   1753   1754 1
  1727   1753   1755 1
  1728   1753   1756 1
  1729   1756   1757 1
  1730   1757   1758 1
  1731   1758   1759 1
  1732   1758   1760 1
  1733   1759   1763 1
  1734   1760   1761 1
  1735   1760   1762 1
  1736   1762   1763 1
  1737   1763   1764 1
  1738   1764   1765 am
  1739   1764   1772 1
  1740   1765   1766 2
  1741   1765   1767 am
  1742   1767   1768 am
  1743   1768   1769 2
  1744   1768   1770 1
  1745   1770   1771 1
  1746   1770   1772 2
  1747   1785   1786 1
  1748   1785   1787 1
  1749   1785   1788 1
  1750   1788   1789 1
  1751   1789   1790 1
  1752   1790   1791 1
  1753   1790   1792 1
  1754   1791   1795 1
  1755   1792   1793 1
  1756   1792   1794 1
  1757   1794   1795 1
  1758   1795   1796 1
  1759   1796   1797 am
  1760   1796   1804 1
  1761   1797   1798 2
  1762   1797   1799 am
  1763   1799   1800 am
  1764   1800   1801 2
  1765   1800   1802 1
  1766   1802   1803 1
  1767   1802   1804 2
  1768   1817   1818 1
  1769   1817   1819 1
  1770   1817   1820 1
  1771   1820   1821 1
  1772   1821   1822 1
  1773   1822   1823 1
  1774   1822   1824 1
  1775   1823   1827 1
  1776   1824   1825 1
  1777   1824   1826 1
  1778   1826   1827 1
  1779   1827   1828 1
  1780   1828   1829 am
  1781   1828   1835 1
  1782   1829   1830 2
  1783   1829   1831 1
  1784   1831   1832 2
  1785   1832   1833 2
  1786   1832   1834 2
  1787   1834   1835 2
  1788   1847   1848 1
  1789   1847   1849 1
  1790   1847   1850 1
  1791   1850   1851 1
  1792   1851   1852 1
  1793   1852   1853 1
  1794   1852   1854 1
  1795   1853   1857 1
  1796   1854   1855 1
  1797   1854   1856 1
  1798   1856   1857 1
  1799   1857   1858 1
  1800   1858   1859 ar
  1801   1858   1867 ar
  1802   1859   1860 ar
  1803   1860   1861 ar
  1804   1861   1862 ar
  1805   1861   1867 ar
  1806   1862   1863 1
  1807   1862   1864 ar
  1808   1864   1865 ar
  1809   1865   1866 ar
  1810   1866   1867 ar
  1811   1879   1880 1
  1812   1879   1881 1
  1813   1879   1882 1
  1814   1882   1883 1
  1815   1883   1884 1
  1816   1884   1885 1
  1817   1884   1886 1
  1818   1885   1889 1
  1819   1886   1887 1
  1820   1886   1888 1
  1821   1888   1889 1
  1822   1889   1890 1
  1823   1890   1891 am
  1824   1890   1897 1
  1825   1891   1892 2
  1826   1891   1893 1
  1827   1893   1894 2
  1828   1894   1895 2
  1829   1894   1896 2
  1830   1896   1897 2
  1831   1295   1277 1
  1832   1296   1277 1
  1833   1297   1278 1
  1834   1298   1280 1
  1835   1299   1282 1
  1836   1300   1282 1
  1837   1301   1283 1
  1838   1302   1285 1
  1839   1303   1290 1
  1840   1326   1310 1
  1841   1327   1310 1
  1842   1328   1311 1
  1843   1329   1313 1
  1844   1330   1315 1
  1845   1331   1315 1
  1846   1332   1316 1
  1847   1333   1320 1
  1848   1334   1325 1
  1849   1360   1342 1
  1850   1361   1342 1
  1851   1362   1343 1
  1852   1363   1345 1
  1853   1364   1347 1
  1854   1365   1347 1
  1855   1366   1348 1
  1856   1367   1350 1
  1857   1368   1355 1
  1858   1392   1375 1
  1859   1393   1375 1
  1860   1394   1376 1
  1861   1395   1378 1
  1862   1396   1380 1
  1863   1397   1380 1
  1864   1398   1381 1
  1865   1399   1383 1
  1866   1400   1389 1
  1867   1424   1407 1
  1868   1425   1407 1
  1869   1426   1408 1
  1870   1427   1410 1
  1871   1428   1412 1
  1872   1429   1412 1
  1873   1430   1413 1
  1874   1431   1415 1
  1875   1432   1421 1
  1876   1455   1439 1
  1877   1456   1439 1
  1878   1457   1440 1
  1879   1458   1442 1
  1880   1459   1444 1
  1881   1460   1444 1
  1882   1461   1445 1
  1883   1462   1449 1
  1884   1463   1454 1
  1885   1487   1471 1
  1886   1488   1471 1
  1887   1489   1472 1
  1888   1490   1474 1
  1889   1491   1476 1
  1890   1492   1476 1
  1891   1493   1477 1
  1892   1494   1481 1
  1893   1495   1486 1
  1894   1518   1503 1
  1895   1519   1503 1
  1896   1520   1504 1
  1897   1521   1506 1
  1898   1522   1508 1
  1899   1523   1508 1
  1900   1524   1509 1
  1901   1525   1516 1
  1902   1526   1517 1
  1903   1550   1533 1
  1904   1551   1533 1
  1905   1552   1534 1
  1906   1553   1536 1
  1907   1554   1538 1
  1908   1555   1538 1
  1909   1556   1539 1
  1910   1557   1541 1
  1911   1558   1547 1
  1912   1580   1565 1
  1913   1581   1565 1
  1914   1582   1566 1
  1915   1583   1568 1
  1916   1584   1570 1
  1917   1585   1570 1
  1918   1586   1571 1
  1919   1587   1578 1
  1920   1588   1579 1
  1921   1613   1595 1
  1922   1614   1595 1
  1923   1615   1596 1
  1924   1616   1598 1
  1925   1617   1600 1
  1926   1618   1600 1
  1927   1619   1601 1
  1928   1620   1603 1
  1929   1621   1608 1
  1930   1644   1628 1
  1931   1645   1628 1
  1932   1646   1629 1
  1933   1647   1631 1
  1934   1648   1633 1
  1935   1649   1633 1
  1936   1650   1634 1
  1937   1651   1638 1
  1938   1652   1643 1
  1939   1678   1660 1
  1940   1679   1660 1
  1941   1680   1661 1
  1942   1681   1663 1
  1943   1682   1665 1
  1944   1683   1665 1
  1945   1684   1666 1
  1946   1685   1668 1
  1947   1686   1673 1
  1948   1710   1693 1
  1949   1711   1693 1
  1950   1712   1694 1
  1951   1713   1696 1
  1952   1714   1698 1
  1953   1715   1698 1
  1954   1716   1699 1
  1955   1717   1701 1
  1956   1718   1707 1
  1957   1742   1725 1
  1958   1743   1725 1
  1959   1744   1726 1
  1960   1745   1728 1
  1961   1746   1730 1
  1962   1747   1730 1
  1963   1748   1731 1
  1964   1749   1733 1
  1965   1750   1739 1
  1966   1773   1757 1
  1967   1774   1757 1
  1968   1775   1758 1
  1969   1776   1760 1
  1970   1777   1762 1
  1971   1778   1762 1
  1972   1779   1763 1
  1973   1780   1767 1
  1974   1781   1772 1
  1975   1805   1789 1
  1976   1806   1789 1
  1977   1807   1790 1
  1978   1808   1792 1
  1979   1809   1794 1
  1980   1810   1794 1
  1981   1811   1795 1
  1982   1812   1799 1
  1983   1813   1804 1
  1984   1836   1821 1
  1985   1837   1821 1
  1986   1838   1822 1
  1987   1839   1824 1
  1988   1840   1826 1
  1989   1841   1826 1
  1990   1842   1827 1
  1991   1843   1834 1
  1992   1844   1835 1
  1993   1868   1851 1
  1994   1869   1851 1
  1995   1870   1852 1
  1996   1871   1854 1
  1997   1872   1856 1
  1998   1873   1856 1
  1999   1874   1857 1
  2000   1875   1859 1
  2001   1876   1865 1
  2002   1898   1883 1
  2003   1899   1883 1
  2004   1900   1884 1
  2005   1901   1886 1
  2006   1902   1888 1
  2007   1903   1888 1
  2008   1904   1889 1
  2009   1905   1896 1
  2010   1906   1897 1
  2011   1304   1292 1
  2012   1305   1292 1
  2013   1369   1357 1
  2014   1370   1357 1
  2015   1527   1515 1
  2016   1528   1515 1
  2017   1589   1577 1
  2018   1590   1577 1
  2019   1622   1610 1
  2020   1623   1610 1
  2021   1687   1675 1
  2022   1688   1675 1
  2023   1845   1833 1
  2024   1846   1833 1
  2025   1907   1895 1
  2026   1908   1895 1
  2027   1401   1387 1
  2028   1402   1387 1
  2029   1433   1419 1
  2030   1434   1419 1
  2031   1559   1545 1
  2032   1560   1545 1
  2033   1719   1705 1
  2034   1720   1705 1
  2035   1751   1737 1
  2036   1752   1737 1
  2037   1877   1863 1
  2038   1878   1863 1
  2039   1335   1324 1
  2040   1336   1324 1
  2041   1337   1324 1
  2042   1464   1453 1
  2043   1465   1453 1
  2044   1466   1453 1
  2045   1496   1485 1
  2046   1497   1485 1
  2047   1498   1485 1
  2048   1653   1642 1
  2049   1654   1642 1
  2050   1655   1642 1
  2051   1782   1771 1
  2052   1783   1771 1
  2053   1784   1771 1
  2054   1814   1803 1
  2055   1815   1803 1
  2056   1816   1803 1
  2057   1569   1909 1
  2058   1591   2141 1
  2059   1917   1942 1
  2060   1950   1974 1
  2061   1982   2007 1
  2062   2047   2071 1
  2063   2079   2101 1
  2064   2109   2133 1
  2065   1909   1910 1
  2066   1909   1911 1
  2067   1909   1912 1
  2068   1912   1913 1
  2069   1913   1914 1
  2070   1914   1915 1
  2071   1914   1916 1
  2072   1915   1919 1
  2073   1916   1917 1
  2074   1916   1918 1
  2075   1918   1919 1
  2076   1919   1920 1
  2077   1920   1921 ar
  2078   1920   1930 ar
  2079   1921   1922 ar
  2080   1922   1923 ar
  2081   1923   1924 1
  2082   1923   1930 ar
  2083   1924   1925 2
  2084   1924   1926 am
  2085   1926   1927 1
  2086   1927   1928 2
  2087   1927   1929 2
  2088   1929   1930 1
  2089   1942   1943 1
  2090   1942   1944 1
  2091   1942   1945 1
  2092   1945   1946 1
  2093   1946   1947 1
  2094   1947   1948 1
  2095   1947   1949 1
  2096   1948   1952 1
  2097   1949   1950 1
  2098   1949   1951 1
  2099   1951   1952 1
  2100   1952   1953 1
  2101   1953   1954 am
  2102   1953   1961 1
  2103   1954   1955 2
  2104   1954   1956 am
  2105   1956   1957 am
  2106   1957   1958 2
  2107   1957   1959 1
  2108   1959   1960 1
  2109   1959   1961 2
  2110   1974   1975 1
  2111   1974   1976 1
  2112   1974   1977 1
  2113   1977   1978 1
  2114   1978   1979 1
  2115   1979   1980 1
  2116   1979   1981 1
  2117   1980   1984 1
  2118   1981   1982 1
  2119   1981   1983 1
  2120   1983   1984 1
  2121   1984   1985 1
  2122   1985   1986 ar
  2123   1985   1995 ar
  2124   1986   1987 ar
  2125   1987   1988 ar
  2126   1988   1989 1
  2127   1988   1995 ar
  2128   1989   1990 2
  2129   1989   1991 am
  2130   1991   1992 1
  2131   1992   1993 2
  2132   1992   1994 2
  2133   1994   1995 1
  2134   2007   2008 1
  2135   2007   2009 1
  2136   2007   2010 1
  2137   2010   2011 1
  2138   2011   2012 1
  2139   2012   2013 1
  2140   2012   2014 1
  2141   2013   2017 1
  2142   2014   2015 1
  2143   2014   2016 1
  2144   2016   2017 1
  2145   2017   2018 1
  2146   2018   2019 ar
  2147   2018   2027 ar
  2148   2019   2020 ar
  2149   2020   2021 ar
  2150   2021   2022 ar
  2151   2021   2027 ar
  2152   2022   2023 1
  2153   2022   2024 ar
  2154   2024   2025 ar
  2155   2025   2026 ar
  2156   2026   2027 ar
  2157   2039   2040 1
  2158   2039   2041 1
  2159   2039   2042 1
  2160   2042   2043 1
  2161   2043   2044 1
  2162   2044   2045 1
  2163   2044   2046 1
  2164   2045   2049 1
  2165   2046   2047 1
  2166   2046   2048 1
  2167   2048   2049 1
  2168   2049   2050 1
  2169   2050   2051 am
  2170   2050   2058 1
  2171   2051   2052 2
  2172   2051   2053 am
  2173   2053   2054 am
  2174   2054   2055 2
  2175   2054   2056 1
  2176   2056   2057 1
  2177   2056   2058 2
  2178   2071   2072 1
  2179   2071   2073 1
  2180   2071   2074 1
  2181   2074   2075 1
  2182   2075   2076 1
  2183   2076   2077 1
  2184   2076   2078 1
  2185   2077   2081 1
  2186   2078   2079 1
  2187   2078   2080 1
  2188   2080   2081 1
  2189   2081   2082 1
  2190   2082   2083 am
  2191   2082   2089 1
  2192   2083   2084 2
  2193   2083   2085 1
  2194   2085   2086 2
  2195   2086   2087 2
  2196   2086   2088 2
  2197   2088   2089 2
  2198   2101   2102 1
  2199   2101   2103 1
  2200   2101   2104 1
  2201   2104   2105 1
  2202   2105   2106 1
  2203   2106   2107 1
  2204   2106   2108 1
  2205   2107   2111 1
  2206   2108   2109 1
  2207   2108   2110 1
  2208   2110   2111 1
  2209   2111   2112 1
  2210   2112   2113 ar
  2211   2112   2121 ar
  2212   2113   2114 ar
  2213   2114   2115 ar
  2214   2115   2116 ar
  2215   2115   2121 ar
  2216   2116   2117 1
  2217   2116   2118 ar
  2218   2118   2119 ar
  2219   2119   2120 ar
  2220   2120   2121 ar
  2221   2133   2134 1
  2222   2133   2135 1
  2223   2133   2136 1
  2224   2136   2137 1
  2225   2137   2138 1
  2226   2138   2139 1
  2227   2138   2140 1
  2228   2139   2143 1
  2229   2140   2141 1
  2230   2140   2142 1
  2231   2142   2143 1
  2232   2143   2144 1
  2233   2144   2145 am
  2234   2144   2151 1
  2235   2145   2146 2
  2236   2145   2147 1
  2237   2147   2148 2
  2238   2148   2149 2
  2239   2148   2150 2
  2240   2150   2151 2
  2241   1931   1913 1
  2242   1932   1913 1
  2243   1933   1914 1
  2244   1934   1916 1
  2245   1935   1918 1
  2246   1936   1918 1
  2247   1937   1919 1
  2248   1938   1921 1
  2249   1939   1926 1
  2250   1962   1946 1
  2251   1963   1946 1
  2252   1964   1947 1
  2253   1965   1949 1
  2254   1966   1951 1
  2255   1967   1951 1
  2256   1968   1952 1
  2257   1969   1956 1
  2258   1970   1961 1
  2259   1996   1978 1
  2260   1997   1978 1
  2261   1998   1979 1
  2262   1999   1981 1
  2263   2000   1983 1
  2264   2001   1983 1
  2265   2002   1984 1
  2266   2003   1986 1
  2267   2004   1991 1
  2268   2028   2011 1
  2269   2029   2011 1
  2270   2030   2012 1
  2271   2031   2014 1
  2272   2032   2016 1
  2273   2033   2016 1
  2274   2034   2017 1
  2275   2035   2019 1
  2276   2036   2025 1
  2277   2059   2043 1
  2278   2060   2043 1
  2279   2061   2044 1
  2280   2062   2046 1
  2281   2063   2048 1
  2282   2064   2048 1
  2283   2065   2049 1
  2284   2066   2053 1
  2285   2067   2058 1
  2286   2090   2075 1
  2287   2091   2075 1
  2288   2092   2076 1
  2289   2093   2078 1
  2290   2094   2080 1
  2291   2095   2080 1
  2292   2096   2081 1
  2293   2097   2088 1
  2294   2098   2089 1
  2295   2122   2105 1
  2296   2123   2105 1
  2297   2124   2106 1
  2298   2125   2108 1
  2299   2126   2110 1
  2300   2127   2110 1
  2301   2128   2111 1
  2302   2129   2113 1
  2303   2130   2119 1
  2304   2152   2137 1
  2305   2153   2137 1
  2306   2154   2138 1
  2307   2155   2140 1
  2308   2156   2142 1
  2309   2157   2142 1
  2310   2158   2143 1
  2311   2159   2150 1
  2312   2160   2151 1
  2313   1940   1928 1
  2314   1941   1928 1
  2315   2005   1993 1
  2316   2006   1993 1
  2317   2099   2087 1
  2318   2100   2087 1
  2319   2161   2149 1
  2320   2162   2149 1
  2321   2037   2023 1
  2322   2038   2023 1
  2323   2131   2117 1
  2324   2132   2117 1
  2325   1971   1960 1
  2326   1972   1960 1
  2327   1973   1960 1
  2328   2068   2057 1
  2329   2069   2057 1
  2330   2070   2057 1
@<TRIPOS>MOLECULE
dna-seg-10-bp33
2100 2263 1 0 0
BIOPOLYMER
NO_CHARGES


@<TRIPOS>ATOM
      1 P         -0.4508    10.2370  1074.4486 P.3      335 DA      0.0000
      2 OP1       -1.0179    11.4654  1073.7816 O.co2    335 DA      0.0000
      3 OP2        0.7491    10.4644  1075.2796 O.co2    335 DA      0.0000
      4 O5'       -1.7335     9.4508  1074.9795 O.3      335 DA      0.0000
      5 C5'       -2.8465     9.1089  1074.1551 C.3      335 DA      0.0000
      6 C4'       -3.4400     7.8124  1074.6774 C.3      335 DA      0.0000
      7 O4'       -2.4832     6.7912  1074.7056 O.3      335 DA      0.0000
      8 C3'       -4.1006     7.8457  1076.0448 C.3      335 DA      0.0000
      9 O3'       -5.4965     7.5575  1075.9669 O.3      335 DA      0.0000
     10 C2'       -3.2753     6.8535  1076.8735 C.3      335 DA      0.0000
     11 C1'       -2.6745     5.9372  1075.8797 C.3      335 DA      0.0000
     12 N9        -1.3754     5.2938  1076.1477 N.ar     335 DA      0.0000
     13 C8        -0.1229     5.8465  1076.2629 C.ar     335 DA      0.0000
     14 N7         0.8375     4.9689  1076.4322 N.ar     335 DA      0.0000
     15 C5         0.1782     3.7445  1076.3952 C.ar     335 DA      0.0000
     16 C6         0.6541     2.4078  1076.5157 C.ar     335 DA      0.0000
     17 N6         1.9191     2.0549  1076.7073 N.pl3    335 DA      0.0000
     18 N1        -0.3012     1.4272  1076.4175 N.ar     335 DA      0.0000
     19 C2        -1.6132     1.7517  1076.2284 C.ar     335 DA      0.0000
     20 N3        -2.1231     2.9733  1076.1206 N.ar     335 DA      0.0000
     21 C4        -1.1732     3.9256  1076.2124 C.ar     335 DA      0.0000
     22 H5'       -2.5159     8.9752  1073.1251 H        335 DA      0.0000
     23 H5''      -3.5947     9.9003  1074.2011 H        335 DA      0.0000
     24 H4'       -4.2060     7.5068  1073.9647 H        335 DA      0.0000
     25 H3'       -3.9741     8.8421  1076.4680 H        335 DA      0.0000
     26 H2'       -2.4988     7.3744  1077.4338 H        335 DA      0.0000
     27 H2''      -3.9232     6.2999  1077.5531 H        335 DA      0.0000
     28 H1'       -3.4022     5.1639  1075.6336 H        335 DA      0.0000
     29 H8         0.0555     6.9107  1076.2181 H        335 DA      0.0000
     30 H2        -2.3096     0.9291  1076.1592 H        335 DA      0.0000
     31 H61        2.6172     2.7078  1077.0335 H        335 DA      0.0000
     32 H62        2.1929     1.1008  1076.5205 H        335 DA      0.0000
     33 P         -6.6477     8.1937  1076.9231 P.3      336 DT      0.0000
     34 OP1       -7.8906     8.5727  1076.1258 O.co2    336 DT      0.0000
     35 OP2       -6.1023     9.2547  1077.7438 O.co2    336 DT      0.0000
     36 O5'       -7.1717     6.8639  1077.7369 O.3      336 DT      0.0000
     37 C5'       -7.2424     5.7122  1076.7918 C.3      336 DT      0.0000
     38 C4'       -6.6949     4.5492  1077.5795 C.3      336 DT      0.0000
     39 O4'       -5.2991     4.6021  1077.7715 O.3      336 DT      0.0000
     40 C3'       -7.2937     4.4723  1078.9961 C.3      336 DT      0.0000
     41 O3'       -8.3516     3.5316  1078.9977 O.3      336 DT      0.0000
     42 C2'       -6.1125     4.1113  1079.8933 C.3      336 DT      0.0000
     43 C1'       -5.0799     3.6830  1078.9287 C.3      336 DT      0.0000
     44 N1        -3.6686     3.7702  1079.2685 N.am     336 DT      0.0000
     45 C2        -2.9800     2.5690  1079.4064 C.2      336 DT      0.0000
     46 O2        -3.5839     1.5076  1079.3184 O.2      336 DT      0.0000
     47 N3        -1.6426     2.6187  1079.6604 N.am     336 DT      0.0000
     48 C4        -0.9578     3.7940  1079.7805 C.2      336 DT      0.0000
     49 O4         0.2882     3.7571  1080.0357 O.2      336 DT      0.0000
     50 C5        -1.6837     5.0186  1079.6090 C.2      336 DT      0.0000
     51 C7        -0.9727     6.3405  1079.6965 C.3      336 DT      0.0000
     52 C6        -3.0022     4.9638  1079.3532 C.2      336 DT      0.0000
     53 H5'       -8.2727     5.5232  1076.4901 H        336 DT      0.0000
     54 H5''      -6.6209     5.9024  1075.9167 H        336 DT      0.0000
     55 H4'       -6.9372     3.6275  1077.0504 H        336 DT      0.0000
     56 H3'       -7.6789     5.4515  1079.2804 H        336 DT      0.0000
     57 H2'       -5.7780     4.9758  1080.4667 H        336 DT      0.0000
     58 H2''      -6.3763     3.2901  1080.5597 H        336 DT      0.0000
     59 H1'       -5.3001     2.6638  1078.6114 H        336 DT      0.0000
     60 H3        -1.1368     1.7507  1079.7641 H        336 DT      0.0000
     61 H6        -3.5498     5.8839  1079.2110 H        336 DT      0.0000
     62 H71        0.0830     6.1724  1079.9095 H        336 DT      0.0000
     63 H72       -1.0721     6.8696  1078.7487 H        336 DT      0.0000
     64 H73       -1.4137     6.9382  1080.4943 H        336 DT      0.0000
     65 P         -9.4011     3.2426  1080.1044 P.3      337 DT      0.0000
     66 OP1      -10.6635     2.5821  1079.4923 O.co2    337 DT      0.0000
     67 OP2       -9.7138     4.5513  1080.7343 O.co2    337 DT      0.0000
     68 O5'       -8.7435     2.0761  1080.9867 O.3      337 DT      0.0000
     69 C5'       -8.6824     0.8110  1080.2749 C.3      337 DT      0.0000
     70 C4'       -7.6901    -0.0700  1080.9511 C.3      337 DT      0.0000
     71 O4'       -6.3617     0.4374  1080.9277 O.3      337 DT      0.0000
     72 C3'       -8.0175    -0.3852  1082.4177 C.3      337 DT      0.0000
     73 O3'       -7.8038    -1.7589  1082.6818 O.3      337 DT      0.0000
     74 C2'       -6.9522     0.4614  1083.1540 C.3      337 DT      0.0000
     75 C1'       -5.7804     0.1356  1082.2505 C.3      337 DT      0.0000
     76 N1        -4.6400     0.9822  1082.5482 N.am     337 DT      0.0000
     77 C2        -3.3829     0.4024  1082.6030 C.2      337 DT      0.0000
     78 O2        -3.2770    -0.8104  1082.4146 O.2      337 DT      0.0000
     79 N3        -2.3110     1.2072  1082.8689 N.am     337 DT      0.0000
     80 C4        -2.4425     2.5460  1083.0759 C.2      337 DT      0.0000
     81 O4        -1.4030     3.2301  1083.2992 O.2      337 DT      0.0000
     82 C5        -3.7401     3.1324  1083.0109 C.2      337 DT      0.0000
     83 C7        -3.9660     4.6013  1083.2208 C.3      337 DT      0.0000
     84 C6        -4.7817     2.3274  1082.7497 C.2      337 DT      0.0000
     85 H5'       -9.6632     0.3356  1080.2873 H        337 DT      0.0000
     86 H5''      -8.3738     0.9858  1079.2442 H        337 DT      0.0000
     87 H4'       -7.6819    -1.0176  1080.4126 H        337 DT      0.0000
     88 H3'       -9.0296    -0.0770  1082.6801 H        337 DT      0.0000
     89 H2'       -7.1938     1.5242  1083.1528 H        337 DT      0.0000
     90 H2''      -6.7854     0.0944  1084.1668 H        337 DT      0.0000
     91 H1'       -5.5125    -0.9182  1082.3261 H        337 DT      0.0000
     92 H3        -1.3902     0.7946  1082.9133 H        337 DT      0.0000
     93 H6        -5.7704     2.7587  1082.6967 H        337 DT      0.0000
     94 H71       -3.0129     5.0913  1083.4197 H        337 DT      0.0000
     95 H72       -4.4153     5.0311  1082.3255 H        337 DT      0.0000
     96 H73       -4.6343     4.7486  1084.0692 H        337 DT      0.0000
     97 P         -8.6384    -2.9407  1083.2897 P.3      338 DC      0.0000
     98 OP1       -9.0450    -3.9379  1082.2218 O.co2    338 DC      0.0000
     99 OP2       -9.7440    -2.2997  1084.0247 O.co2    338 DC      0.0000
    100 O5'       -7.4095    -3.6246  1084.1157 O.3      338 DC      0.0000
    101 C5'       -6.3603    -3.7963  1083.0935 C.3      338 DC      0.0000
    102 C4'       -5.1546    -4.3599  1083.7900 C.3      338 DC      0.0000
    103 O4'       -4.1779    -3.3964  1084.0369 O.3      338 DC      0.0000
    104 C3'       -5.4474    -5.1153  1085.0814 C.3      338 DC      0.0000
    105 O3'       -4.9430    -6.4419  1085.0018 O.3      338 DC      0.0000
    106 C2'       -4.8497    -4.1749  1086.1302 C.3      338 DC      0.0000
    107 C1'       -3.7407    -3.4908  1085.4338 C.3      338 DC      0.0000
    108 N1        -3.5122    -2.0810  1085.7659 N.am     338 DC      0.0000
    109 C2        -2.1905    -1.7227  1086.0217 C.2      338 DC      0.0000
    110 O2        -1.2860    -2.5633  1086.0262 O.2      338 DC      0.0000
    111 N3        -1.9348    -0.4017  1086.2955 N.2      338 DC      0.0000
    112 C4        -2.9282     0.5328  1086.2856 C.2      338 DC      0.0000
    113 N4        -2.5807     1.7848  1086.5625 N.pl3    338 DC      0.0000
    114 C5        -4.2610     0.1576  1086.0076 C.2      338 DC      0.0000
    115 C6        -4.4962    -1.1440  1085.7428 C.2      338 DC      0.0000
    116 H5'       -6.7010    -4.4845  1082.3198 H        338 DC      0.0000
    117 H5''      -6.1144    -2.8318  1082.6493 H        338 DC      0.0000
    118 H4'       -4.7105    -5.0813  1083.1040 H        338 DC      0.0000
    119 H3'       -6.5270    -5.1590  1085.2247 H        338 DC      0.0000
    120 H2'       -5.5939    -3.4538  1086.4681 H        338 DC      0.0000
    121 H2''      -4.4679    -4.7470  1086.9757 H        338 DC      0.0000
    122 H1'       -2.8174    -4.0643  1085.5147 H        338 DC      0.0000
    123 H5        -5.0603     0.8839  1086.0070 H        338 DC      0.0000
    124 H6        -5.5031    -1.4527  1085.5038 H        338 DC      0.0000
    125 H41       -1.6162     2.0089  1086.7617 H        338 DC      0.0000
    126 H42       -3.2810     2.5125  1086.5738 H        338 DC      0.0000
    127 P         -5.3606    -7.6879  1085.9538 P.3      339 DA      0.0000
    128 OP1       -5.1099    -8.9557  1085.1601 O.co2    339 DA      0.0000
    129 OP2       -6.7884    -7.5334  1086.2993 O.co2    339 DA      0.0000
    130 O5'       -4.3572    -7.5499  1087.2508 O.3      339 DA      0.0000
    131 C5'       -2.9302    -7.4523  1086.9556 C.3      339 DA      0.0000
    132 C4'       -2.1514    -7.2320  1088.2109 C.3      339 DA      0.0000
    133 O4'       -1.7609    -5.8770  1088.4530 O.3      339 DA      0.0000
    134 C3'       -2.8774    -7.5984  1089.5161 C.3      339 DA      0.0000
    135 O3'       -1.9019    -7.7738  1090.5460 O.3      339 DA      0.0000
    136 C2'       -3.6764    -6.2974  1089.7307 C.3      339 DA      0.0000
    137 C1'       -2.4971    -5.3362  1089.5474 C.3      339 DA      0.0000
    138 N9        -2.9989    -3.9757  1089.4531 N.ar     339 DA      0.0000
    139 C8        -4.2771    -3.5039  1089.3372 C.ar     339 DA      0.0000
    140 N7        -4.3864    -2.1876  1089.3187 N.ar     339 DA      0.0000
    141 C5        -3.0707    -1.7596  1089.4262 C.ar     339 DA      0.0000
    142 C6        -2.4932    -0.4664  1089.4607 C.ar     339 DA      0.0000
    143 N6        -3.1758     0.6613  1089.3755 N.pl3    339 DA      0.0000
    144 N1        -1.1351    -0.4177  1089.5933 N.ar     339 DA      0.0000
    145 C2        -0.3877    -1.5625  1089.6735 C.ar     339 DA      0.0000
    146 N3        -0.8557    -2.8081  1089.6436 N.ar     339 DA      0.0000
    147 C4        -2.2054    -2.8374  1089.5206 C.ar     339 DA      0.0000
    148 H5'       -2.5972    -8.3771  1086.4844 H        339 DA      0.0000
    149 H5''      -2.7591    -6.6188  1086.2743 H        339 DA      0.0000
    150 H4'       -1.2455    -7.8352  1088.1520 H        339 DA      0.0000
    151 H3'       -3.5232    -8.4691  1089.4024 H        339 DA      0.0000
    152 H2'       -4.4536    -6.1546  1088.9799 H        339 DA      0.0000
    153 H2''      -4.0828    -6.2414  1090.7406 H        339 DA      0.0000
    154 H1'       -1.8708    -5.4011  1090.4370 H        339 DA      0.0000
    155 H8        -5.1332    -4.1585  1089.2663 H        339 DA      0.0000
    156 H2         0.6813    -1.4434  1089.7699 H        339 DA      0.0000
    157 H61       -2.9578     1.6309  1089.5555 H        339 DA      0.0000
    158 H62       -4.1255     0.5234  1089.0607 H        339 DA      0.0000
    159 P         -1.0728    -9.1352  1090.6865 P.3      340 DC      0.0000
    160 OP1       -1.0729    -9.9542  1089.4414 O.co2    340 DC      0.0000
    161 OP2       -1.7701    -9.8147  1091.8294 O.co2    340 DC      0.0000
    162 O5'        0.4049    -8.6344  1090.9696 O.3      340 DC      0.0000
    163 C5'        1.2846    -8.2175  1089.8819 C.3      340 DC      0.0000
    164 C4'        2.1802    -7.1925  1090.5869 C.3      340 DC      0.0000
    165 O4'        1.3776    -6.0775  1090.8989 O.3      340 DC      0.0000
    166 C3'        2.7800    -7.6968  1091.8968 C.3      340 DC      0.0000
    167 O3'        4.2131    -7.5193  1091.9647 O.3      340 DC      0.0000
    168 C2'        2.0193    -6.9159  1092.9790 C.3      340 DC      0.0000
    169 C1'        1.7223    -5.6392  1092.3028 C.3      340 DC      0.0000
    170 N1         0.5487    -4.8444  1092.6556 N.am     340 DC      0.0000
    171 C2         0.7386    -3.4640  1092.6287 C.2      340 DC      0.0000
    172 O2         1.8309    -2.9504  1092.4218 O.2      340 DC      0.0000
    173 N3        -0.3432    -2.6794  1092.8819 N.2      340 DC      0.0000
    174 C4        -1.5755    -3.1923  1093.1152 C.2      340 DC      0.0000
    175 N4        -2.5568    -2.3221  1093.3462 N.pl3    340 DC      0.0000
    176 C5        -1.7593    -4.6024  1093.1218 C.2      340 DC      0.0000
    177 C6        -0.6873    -5.3702  1092.8723 C.2      340 DC      0.0000
    178 H5'        1.8658    -9.0555  1089.4971 H        340 DC      0.0000
    179 H5''       0.7130    -7.7453  1089.0829 H        340 DC      0.0000
    180 H4'        2.9814    -6.8866  1089.9142 H        340 DC      0.0000
    181 H3'        2.5518    -8.7574  1092.0027 H        340 DC      0.0000
    182 H2'        1.1030    -7.4318  1093.2660 H        340 DC      0.0000
    183 H2''       2.6542    -6.7498  1093.8493 H        340 DC      0.0000
    184 H1'        2.6108    -5.0080  1092.2896 H        340 DC      0.0000
    185 H5        -2.7267    -5.0396  1093.3203 H        340 DC      0.0000
    186 H6        -0.8100    -6.4428  1092.8426 H        340 DC      0.0000
    187 H41       -2.3654    -1.3305  1093.3351 H        340 DC      0.0000
    188 H42       -3.4924    -2.6539  1093.5323 H        340 DC      0.0000
    189 P         -2.9135     7.9723  1094.9242 P.3      340 DG      0.0000
    190 OP1       -3.4855     9.3426  1095.1030 O.co2    340 DG      0.0000
    191 OP2       -3.6183     7.1687  1093.8394 O.co2    340 DG      0.0000
    192 O5'       -1.2844     8.0838  1094.7170 O.3      340 DG      0.0000
    193 C5'       -0.3961     7.6838  1095.8127 C.3      340 DG      0.0000
    194 C4'        0.8068     6.9893  1095.1785 C.3      340 DG      0.0000
    195 O4'        0.6226     5.6032  1095.0826 O.3      340 DG      0.0000
    196 C3'        1.1476     7.4751  1093.7721 C.3      340 DG      0.0000
    197 O3'        2.5648     7.5846  1093.5051 O.3      340 DG      0.0000
    198 C2'        0.4836     6.4193  1092.8698 C.3      340 DG      0.0000
    199 C1'        0.7050     5.1617  1093.6937 C.3      340 DG      0.0000
    200 N9        -0.3380     4.1583  1093.4203 N.ar     340 DG      0.0000
    201 C8        -1.6882     4.3638  1093.2637 C.ar     340 DG      0.0000
    202 N7        -2.3699     3.2708  1093.0453 N.ar     340 DG      0.0000
    203 C5        -1.4051     2.2705  1093.0701 C.ar     340 DG      0.0000
    204 C6        -1.5099     0.8626  1092.9136 C.2      340 DG      0.0000
    205 O6        -2.5481     0.2152  1092.7168 O.2      340 DG      0.0000
    206 N1        -0.3139     0.1938  1093.0005 N.am     340 DG      0.0000
    207 C2         0.8644     0.8267  1093.2212 C.2      340 DG      0.0000
    208 N2         1.9408     0.0478  1093.2845 N.pl3    340 DG      0.0000
    209 N3         1.0179     2.1471  1093.3789 N.2      340 DG      0.0000
    210 C4        -0.1560     2.8028  1093.2956 C.ar     340 DG      0.0000
    211 H5'       -0.0705     8.5618  1096.3705 H        340 DG      0.0000
    212 H5''      -0.9149     6.9934  1096.4777 H        340 DG      0.0000
    213 H4'        1.6729     7.1697  1095.8152 H        340 DG      0.0000
    214 H3'        0.6743     8.4421  1093.6016 H        340 DG      0.0000
    215 H2'       -0.5775     6.6238  1092.7272 H        340 DG      0.0000
    216 H2''       0.9975     6.3502  1091.9111 H        340 DG      0.0000
    217 H1'        1.6913     4.7455  1093.4884 H        340 DG      0.0000
    218 H8        -2.1446     5.3412  1093.3164 H        340 DG      0.0000
    219 H1        -0.3120    -0.8107  1092.8957 H        340 DG      0.0000
    220 H21        1.8487    -0.9514  1093.1695 H        340 DG      0.0000
    221 H22        2.8504     0.4555  1093.4477 H        340 DG      0.0000
    222 P          3.0036     7.3512  1091.9816 P.3      339 DT      0.0000
    223 OP1        4.2551     8.0901  1091.5907 O.co2    339 DT      0.0000
    224 OP2        1.8156     7.8981  1091.2811 O.co2    339 DT      0.0000
    225 O5'        3.2345     5.7711  1091.8507 O.3      339 DT      0.0000
    226 C5'        4.5862     5.2780  1092.1184 C.3      339 DT      0.0000
    227 C4'        4.7813     3.9823  1091.3613 C.3      339 DT      0.0000
    228 O4'        3.6156     3.1781  1091.3340 O.3      339 DT      0.0000
    229 C3'        5.1709     4.1947  1089.9066 C.3      339 DT      0.0000
    230 O3'        6.1374     3.2427  1089.4115 O.3      339 DT      0.0000
    231 C2'        3.8470     4.0812  1089.1838 C.3      339 DT      0.0000
    232 C1'        3.2381     2.9266  1089.9619 C.3      339 DT      0.0000
    233 N1         1.7787     3.0367  1089.8106 N.am     339 DT      0.0000
    234 C2         1.0586     1.8512  1089.9173 C.2      339 DT      0.0000
    235 O2         1.6378     0.7870  1090.1071 O.2      339 DT      0.0000
    236 N3        -0.3005     1.9336  1089.7972 N.am     339 DT      0.0000
    237 C4        -0.9345     3.1200  1089.5796 C.2      339 DT      0.0000
    238 O4        -2.2060     3.0970  1089.4820 O.2      339 DT      0.0000
    239 C5        -0.1703     4.3171  1089.4732 C.2      339 DT      0.0000
    240 C7        -0.8592     5.6318  1089.2443 C.3      339 DT      0.0000
    241 C6         1.1569     4.2307  1089.5950 C.2      339 DT      0.0000
    242 H5'        5.3187     6.0129  1091.7847 H        339 DT      0.0000
    243 H5''       4.7065     5.0998  1093.1870 H        339 DT      0.0000
    244 H4'        5.5755     3.4173  1091.8493 H        339 DT      0.0000
    245 H3'        5.5635     5.2039  1089.7826 H        339 DT      0.0000
    246 H2'        3.2541     4.9913  1089.2753 H        339 DT      0.0000
    247 H2''       3.9941     3.8136  1088.1374 H        339 DT      0.0000
    248 H1'        3.6089     1.9634  1089.6112 H        339 DT      0.0000
    249 H3        -0.8512     1.0902  1089.8718 H        339 DT      0.0000
    250 H6         1.7521     5.1288  1089.5208 H        339 DT      0.0000
    251 H71       -1.9352     5.4716  1089.1756 H        339 DT      0.0000
    252 H72       -0.6445     6.3038  1090.0751 H        339 DT      0.0000
    253 H73       -0.4978     6.0747  1088.3161 H        339 DT      0.0000
    254 P          7.3207     4.1079  1088.6331 P.3      338 DG      0.0000
    255 OP1        8.4907     4.4308  1089.5044 O.co2    338 DG      0.0000
    256 OP2        6.5044     5.2794  1088.2276 O.co2    338 DG      0.0000
    257 O5'        7.8030     3.0338  1087.5523 O.3      338 DG      0.0000
    258 C5'        8.6845     1.9630  1087.9758 C.3      338 DG      0.0000
    259 C4'        7.9872     0.6846  1087.5280 C.3      338 DG      0.0000
    260 O4'        6.6030     0.7787  1087.7988 O.3      338 DG      0.0000
    261 C3'        8.1429     0.3693  1086.0403 C.3      338 DG      0.0000
    262 O3'        8.6990    -0.9165  1085.8318 O.3      338 DG      0.0000
    263 C2'        6.7547     0.5828  1085.4636 C.3      338 DG      0.0000
    264 C1'        5.8568     0.3213  1086.6497 C.3      338 DG      0.0000
    265 N9         4.5974     1.0602  1086.5262 N.ar     338 DG      0.0000
    266 C8         4.4151     2.4048  1086.3673 C.ar     338 DG      0.0000
    267 N7         3.1561     2.7609  1086.2893 N.ar     338 DG      0.0000
    268 C5         2.4573     1.5651  1086.4268 C.ar     338 DG      0.0000
    269 C6         1.0672     1.2762  1086.4363 C.2      338 DG      0.0000
    270 O6         0.1434     2.0775  1086.3372 O.2      338 DG      0.0000
    271 N1         0.7627    -0.0470  1086.5852 N.am     338 DG      0.0000
    272 C2         1.7343    -1.0093  1086.7181 C.2      338 DG      0.0000
    273 N2         1.2984    -2.2621  1086.8538 N.pl3    338 DG      0.0000
    274 N3         3.0555    -0.8058  1086.7224 N.2      338 DG      0.0000
    275 C4         3.3419     0.5099  1086.5717 C.ar     338 DG      0.0000
    276 H5'        9.6593     2.0563  1087.4970 H        338 DG      0.0000
    277 H5''       8.7948     1.9722  1089.0601 H        338 DG      0.0000
    278 H4'        8.3942    -0.1485  1088.1010 H        338 DG      0.0000
    279 H3'        8.8137     1.1081  1085.6017 H        338 DG      0.0000
    280 H2'        6.6342     1.6023  1085.0972 H        338 DG      0.0000
    281 H2''       6.5563    -0.1355  1084.6681 H        338 DG      0.0000
    282 H1'        5.6556    -0.7465  1086.7368 H        338 DG      0.0000
    283 H8         5.2322     3.1087  1086.3112 H        338 DG      0.0000
    284 H1        -0.2076    -0.3269  1086.5981 H        338 DG      0.0000
    285 H21        0.3069    -2.4545  1086.8547 H        338 DG      0.0000
    286 H22        1.9597    -3.0186  1086.9555 H        338 DG      0.0000
    287 P          8.3060    -2.1783  1084.9655 P.3      337 DA      0.0000
    288 OP1        8.5954    -3.4663  1085.7469 O.co2    337 DA      0.0000
    289 OP2        9.1527    -2.1023  1083.7728 O.co2    337 DA      0.0000
    290 O5'        6.6871    -2.1238  1084.7907 O.3      337 DA      0.0000
    291 C5'        5.9948    -2.7276  1085.9472 C.3      337 DA      0.0000
    292 C4'        5.2333    -3.9183  1085.4194 C.3      337 DA      0.0000
    293 O4'        3.8756    -3.6326  1085.1971 O.3      337 DA      0.0000
    294 C3'        5.7679    -4.4208  1084.0789 C.3      337 DA      0.0000
    295 O3'        5.8037    -5.8260  1084.0037 O.3      337 DA      0.0000
    296 C2'        4.8922    -3.6827  1083.0823 C.3      337 DA      0.0000
    297 C1'        3.6207    -3.3380  1083.8061 C.3      337 DA      0.0000
    298 N9         3.2295    -1.9360  1083.5806 N.ar     337 DA      0.0000
    299 C8         4.0329    -0.8318  1083.3943 C.ar     337 DA      0.0000
    300 N7         3.3766     0.2885  1083.1984 N.ar     337 DA      0.0000
    301 C5         2.0465    -0.1028  1083.2852 C.ar     337 DA      0.0000
    302 C6         0.8449     0.6360  1083.1796 C.ar     337 DA      0.0000
    303 N6         0.7992     1.9394  1082.9671 N.pl3    337 DA      0.0000
    304 N1        -0.3088    -0.0766  1083.3033 N.ar     337 DA      0.0000
    305 C2        -0.2919    -1.4237  1083.5278 C.ar     337 DA      0.0000
    306 N3         0.8010    -2.1754  1083.6437 N.ar     337 DA      0.0000
    307 C4         1.9412    -1.4561  1083.5076 C.ar     337 DA      0.0000
    308 H5'        6.7204    -3.0468  1086.6952 H        337 DA      0.0000
    309 H5''       5.3028    -2.0075  1086.3838 H        337 DA      0.0000
    310 H4'        5.3040    -4.7267  1086.1470 H        337 DA      0.0000
    311 H3'        6.7877    -4.0530  1083.9657 H        337 DA      0.0000
    312 H2'        4.6766    -4.3208  1082.2254 H        337 DA      0.0000
    313 H2''       5.3911    -2.7717  1082.7517 H        337 DA      0.0000
    314 H1'        2.8232    -3.9888  1083.4479 H        337 DA      0.0000
    315 H8         5.1116    -0.8836  1083.4082 H        337 DA      0.0000
    316 H2        -1.2459    -1.9214  1083.6191 H        337 DA      0.0000
    317 H61        0.0155     2.4930  1083.2825 H        337 DA      0.0000
    318 H62        1.5613     2.3899  1082.4809 H        337 DA      0.0000
    319 P          5.4752    -6.8187  1082.8191 P.3      336 DA      0.0000
    320 OP1        5.4103    -8.2845  1083.3390 O.co2    336 DA      0.0000
    321 OP2        6.6366    -6.6851  1081.8854 O.co2    336 DA      0.0000
    322 O5'        4.0196    -6.4863  1082.3164 O.3      336 DA      0.0000
    323 C5'        2.9018    -7.2763  1082.7722 C.3      336 DA      0.0000
    324 C4'        1.6706    -6.7459  1082.0703 C.3      336 DA      0.0000
    325 O4'        1.6323    -5.3525  1081.9495 O.3      336 DA      0.0000
    326 C3'        1.4814    -7.3098  1080.6628 C.3      336 DA      0.0000
    327 O3'        0.3005    -8.1334  1080.6313 O.3      336 DA      0.0000
    328 C2'        1.5300    -6.0735  1079.7632 C.3      336 DA      0.0000
    329 C1'        1.0428    -4.9768  1080.6610 C.3      336 DA      0.0000
    330 N9         1.5191    -3.6304  1080.3614 N.ar     336 DA      0.0000
    331 C8         2.8098    -3.1839  1080.1666 C.ar     336 DA      0.0000
    332 N7         2.8975    -1.8887  1079.9612 N.ar     336 DA      0.0000
    333 C5         1.5914    -1.4456  1080.0358 C.ar     336 DA      0.0000
    334 C6         1.0225    -0.1591  1079.9023 C.ar     336 DA      0.0000
    335 N6         1.7284     0.9410  1079.6591 N.pl3    336 DA      0.0000
    336 N1        -0.3401    -0.1047  1080.0511 N.ar     336 DA      0.0000
    337 C2        -1.0806    -1.2011  1080.3036 C.ar     336 DA      0.0000
    338 N3        -0.6134    -2.4455  1080.4425 N.ar     336 DA      0.0000
    339 C4         0.7293    -2.4960  1080.2953 C.ar     336 DA      0.0000
    340 H5'        3.0556    -8.3248  1082.5171 H        336 DA      0.0000
    341 H5''       2.7881    -7.1701  1083.8510 H        336 DA      0.0000
    342 H4'        0.8047    -7.0457  1082.6604 H        336 DA      0.0000
    343 H3'        2.3414    -7.9370  1080.4278 H        336 DA      0.0000
    344 H2'        2.5469    -5.8773  1079.4233 H        336 DA      0.0000
    345 H2''       0.8602    -6.1950  1078.9119 H        336 DA      0.0000
    346 H1'       -0.0454    -4.9904  1080.7221 H        336 DA      0.0000
    347 H8         3.6689    -3.8383  1080.1816 H        336 DA      0.0000
    348 H2        -2.1470    -1.0622  1080.4027 H        336 DA      0.0000
    349 H61        1.2958     1.8051  1079.9531 H        336 DA      0.0000
    350 H62        2.6335     0.9147  1079.2118 H        336 DA      0.0000
    351 P         -0.1236    -8.8363  1079.2463 P.3      335 DT      0.0000
    352 OP1       -1.1506    -9.9249  1079.3045 O.co2    335 DT      0.0000
    353 OP2        1.2189    -9.2486  1078.7337 O.co2    335 DT      0.0000
    354 O5'       -0.8730    -7.5242  1078.5432 O.3      335 DT      0.0000
    355 C5'       -1.6692    -6.8372  1079.5555 C.3      335 DT      0.0000
    356 C4'       -2.7323    -6.0376  1078.8726 C.3      335 DT      0.0000
    357 O4'       -2.3920    -4.6954  1078.6922 O.3      335 DT      0.0000
    358 C3'       -3.1406    -6.5792  1077.5113 C.3      335 DT      0.0000
    359 O3'       -4.5408    -6.4340  1077.2440 O.3      335 DT      0.0000
    360 C2'       -2.2157    -5.7423  1076.6180 C.3      335 DT      0.0000
    361 C1'       -2.3264    -4.3750  1077.2580 C.3      335 DT      0.0000
    362 N1        -1.1078    -3.5763  1077.0280 N.am     335 DT      0.0000
    363 C2        -1.2554    -2.2058  1076.9064 C.2      335 DT      0.0000
    364 O2        -2.3686    -1.6793  1076.9432 O.2      335 DT      0.0000
    365 N3        -0.1263    -1.4508  1076.7390 N.am     335 DT      0.0000
    366 C4         1.1124    -2.0103  1076.6905 C.2      335 DT      0.0000
    367 O4         2.0996    -1.2377  1076.5050 O.2      335 DT      0.0000
    368 C5         1.2439    -3.4194  1076.8389 C.2      335 DT      0.0000
    369 C7         2.6032    -4.0755  1076.7868 C.3      335 DT      0.0000
    370 C6         0.1323    -4.1421  1077.0119 C.2      335 DT      0.0000
    371 H5'       -2.1307    -7.5699  1080.2176 H        335 DT      0.0000
    372 H5''      -1.0284    -6.1731  1080.1356 H        335 DT      0.0000
    373 H4'       -3.6164    -6.0642  1079.5096 H        335 DT      0.0000
    374 H3'       -2.8630    -7.6307  1077.4393 H        335 DT      0.0000
    375 H2'       -1.1913    -6.1134  1076.6486 H        335 DT      0.0000
    376 H2''      -2.5868    -5.7194  1075.5934 H        335 DT      0.0000
    377 H1'       -3.2200    -3.8475  1076.9241 H        335 DT      0.0000
    378 H3        -0.2155    -0.4488  1076.6489 H        335 DT      0.0000
    379 H6         0.2199    -5.2105  1077.1433 H        335 DT      0.0000
    380 H71        2.7854    -4.4555  1075.7816 H        335 DT      0.0000
    381 H72        2.6356    -4.9006  1077.4983 H        335 DT      0.0000
    382 H73        3.3697    -3.3442  1077.0433 H        335 DT      0.0000
    383 P          6.5501    -7.5814  1096.9657 P.3      341 DG      0.0000
    384 OP1        6.8696    -9.0304  1096.9642 O.co2    341 DG      0.0000
    385 OP2        5.4551    -7.3702  1098.0214 O.co2    341 DG      0.0000
    386 O5'        7.7707    -6.5765  1097.1441 O.3      341 DG      0.0000
    387 C5'        8.4559    -5.7929  1096.1441 C.3      341 DG      0.0000
    388 C4'        8.5446    -4.3657  1096.6429 C.3      341 DG      0.0000
    389 O4'        7.4444    -3.5876  1096.2238 O.3      341 DG      0.0000
    390 C3'        8.6877    -4.1441  1098.1351 C.3      341 DG      0.0000
    391 O3'        9.8435    -3.3205  1098.4471 O.3      341 DG      0.0000
    392 C2'        7.3724    -3.5172  1098.5570 C.3      341 DG      0.0000
    393 C1'        6.8867    -2.8344  1097.3014 C.3      341 DG      0.0000
    394 N9         5.4128    -2.8193  1097.2723 N.ar     341 DG      0.0000
    395 C8         4.5255    -3.8443  1097.5012 C.ar     341 DG      0.0000
    396 N7         3.2631    -3.4912  1097.4115 N.ar     341 DG      0.0000
    397 C5         3.3199    -2.1365  1097.0945 C.ar     341 DG      0.0000
    398 C6         2.3026    -1.1766  1096.8686 C.2      341 DG      0.0000
    399 O6         1.0823    -1.3397  1096.8898 O.2      341 DG      0.0000
    400 N1         2.7460     0.0866  1096.5870 N.am     341 DG      0.0000
    401 C2         4.0014     0.3971  1096.5264 C.2      341 DG      0.0000
    402 N2         4.1420     1.6305  1096.2296 N.pl3    341 DG      0.0000
    403 N3         5.0746    -0.4750  1096.7351 N.2      341 DG      0.0000
    404 C4         4.6322    -1.7110  1097.0077 C.ar     341 DG      0.0000
    405 H5'        9.4579    -6.1915  1095.9854 H        341 DG      0.0000
    406 H5''       7.8969    -5.8211  1095.2088 H        341 DG      0.0000
    407 H4'        9.4286    -3.9290  1096.1782 H        341 DG      0.0000
    408 H3'        8.7957    -5.1097  1098.6291 H        341 DG      0.0000
    409 H2'        6.6653    -4.2794  1098.8840 H        341 DG      0.0000
    410 H2''       7.5363    -2.7858  1099.3485 H        341 DG      0.0000
    411 H1'        7.2649    -1.8126  1097.2694 H        341 DG      0.0000
    412 H8         4.8387    -4.8513  1097.7343 H        341 DG      0.0000
    413 H1         2.0622     0.8105  1096.4187 H        341 DG      0.0000
    414 H21        3.3282     2.2111  1096.0852 H        341 DG      0.0000
    415 H22        5.0669     2.0260  1096.1392 H        341 DG      0.0000
    416 P         10.0822    -2.6921  1099.8756 P.3      342 DT      0.0000
    417 OP1       11.4993    -2.7154  1100.3873 O.co2    342 DT      0.0000
    418 OP2        9.3187    -3.6633  1100.7943 O.co2    342 DT      0.0000
    419 O5'        9.3827    -1.3092  1099.9042 O.3      342 DT      0.0000
    420 C5'       10.1003    -0.0527  1099.7602 C.3      342 DT      0.0000
    421 C4'        9.0235     1.0106  1099.8177 C.3      342 DT      0.0000
    422 O4'        7.7426     0.4875  1099.5426 O.3      342 DT      0.0000
    423 C3'        8.8663     1.7355  1101.1305 C.3      342 DT      0.0000
    424 O3'        9.2156     3.1148  1100.9423 O.3      342 DT      0.0000
    425 C2'        7.3976     1.5762  1101.5227 C.3      342 DT      0.0000
    426 C1'        6.7672     1.3701  1100.1700 C.3      342 DT      0.0000
    427 N1         5.5081     0.6313  1100.2666 N.am     342 DT      0.0000
    428 C2         4.3493     1.3319  1100.0687 C.2      342 DT      0.0000
    429 O2         4.3396     2.5375  1099.8305 O.2      342 DT      0.0000
    430 N3         3.1758     0.6317  1100.1497 N.am     342 DT      0.0000
    431 C4         3.1279    -0.6952  1100.4056 C.2      342 DT      0.0000
    432 O4         1.9760    -1.2009  1100.4509 O.2      342 DT      0.0000
    433 C5         4.3510    -1.4124  1100.6053 C.2      342 DT      0.0000
    434 C7         4.3419    -2.8801  1100.8852 C.3      342 DT      0.0000
    435 C6         5.4941    -0.7195  1100.5238 C.2      342 DT      0.0000
    436 H5'       10.8140     0.0781  1100.5737 H        342 DT      0.0000
    437 H5''      10.6132    -0.0189  1098.7991 H        342 DT      0.0000
    438 H4'        9.2497     1.7538  1099.0532 H        342 DT      0.0000
    439 H3'        9.5083     1.2853  1101.8876 H        342 DT      0.0000
    440 H2'        7.2467     0.7134  1102.1715 H        342 DT      0.0000
    441 H2''       7.0207     2.4850  1101.9919 H        342 DT      0.0000
    442 H1'        6.6518     2.3068  1099.6246 H        342 DT      0.0000
    443 H3         2.3072     1.1283  1100.0122 H        342 DT      0.0000
    444 H6         6.4320    -1.2364  1100.6642 H        342 DT      0.0000
    445 H71        4.6089    -3.4249  1099.9797 H        342 DT      0.0000
    446 H72        3.3461    -3.1816  1101.2100 H        342 DT      0.0000
    447 H73        5.0637    -3.1047  1101.6705 H        342 DT      0.0000
    448 P          9.9878     3.7562  1102.2222 P.3      343 DG      0.0000
    449 OP1       10.9709     4.6744  1101.5072 O.co2    343 DG      0.0000
    450 OP2       10.6182     2.6871  1102.9758 O.co2    343 DG      0.0000
    451 O5'        8.6829     4.5245  1102.8317 O.3      343 DG      0.0000
    452 C5'        7.9747     5.2262  1101.7412 C.3      343 DG      0.0000
    453 C4'        6.6271     5.6318  1102.2612 C.3      343 DG      0.0000
    454 O4'        5.5833     4.7125  1102.0806 O.3      343 DG      0.0000
    455 C3'        6.6553     5.9817  1103.7692 C.3      343 DG      0.0000
    456 O3'        6.1008     7.3101  1103.9281 O.3      343 DG      0.0000
    457 C2'        5.8900     4.8503  1104.4218 C.3      343 DG      0.0000
    458 C1'        4.8758     4.4971  1103.3403 C.3      343 DG      0.0000
    459 N9         4.3680     3.1311  1103.5098 N.ar     343 DG      0.0000
    460 C8         5.0563     1.9981  1103.8460 C.ar     343 DG      0.0000
    461 N7         4.3180     0.9134  1103.9317 N.ar     343 DG      0.0000
    462 C5         3.0458     1.3753  1103.6017 C.ar     343 DG      0.0000
    463 C6         1.8013     0.6891  1103.5074 C.2      343 DG      0.0000
    464 O6         1.5736    -0.5146  1103.6997 O.2      343 DG      0.0000
    465 N1         0.7341     1.4906  1103.1723 N.am     343 DG      0.0000
    466 C2         0.8780     2.8259  1102.9486 C.2      343 DG      0.0000
    467 N2        -0.2676     3.4474  1102.6397 N.pl3    343 DG      0.0000
    468 N3         2.0172     3.5107  1103.0196 N.2      343 DG      0.0000
    469 C4         3.0612     2.7296  1103.3462 C.ar     343 DG      0.0000
    470 H5'        8.5381     6.1096  1101.4407 H        343 DG      0.0000
    471 H5''       7.8551     4.5575  1100.8888 H        343 DG      0.0000
    472 H4'        6.3436     6.5407  1101.7306 H        343 DG      0.0000
    473 H3'        7.6860     5.9743  1104.1240 H        343 DG      0.0000
    474 H2'        6.5427     4.0064  1104.6447 H        343 DG      0.0000
    475 H2''       5.3860     5.1964  1105.3242 H        343 DG      0.0000
    476 H1'        4.0399     5.1942  1103.3992 H        343 DG      0.0000
    477 H8         6.1211     1.9945  1104.0266 H        343 DG      0.0000
    478 H1        -0.1833     1.0761  1103.0900 H        343 DG      0.0000
    479 H21       -1.1292     2.9227  1102.5895 H        343 DG      0.0000
    480 H22       -0.2699     4.4408  1102.4571 H        343 DG      0.0000
    481 P          6.0819     8.0282  1105.3165 P.3      344 DA      0.0000
    482 OP1        7.2841     8.8415  1105.6719 O.co2    344 DA      0.0000
    483 OP2        6.1024     6.7355  1106.2122 O.co2    344 DA      0.0000
    484 O5'        4.6412     8.6423  1105.5656 O.3      344 DA      0.0000
    485 C5'        3.6980     8.9757  1104.5366 C.3      344 DA      0.0000
    486 C4'        2.3700     8.4082  1105.0109 C.3      344 DA      0.0000
    487 O4'        2.3770     6.9995  1104.9205 O.3      344 DA      0.0000
    488 C3'        1.9559     8.7595  1106.4399 C.3      344 DA      0.0000
    489 O3'        0.5828     9.1987  1106.4922 O.3      344 DA      0.0000
    490 C2'        2.1893     7.4341  1107.1754 C.3      344 DA      0.0000
    491 C1'        1.7128     6.4720  1106.0978 C.3      344 DA      0.0000
    492 N9         2.1174     5.0812  1106.3262 N.ar     344 DA      0.0000
    493 C8         3.3581     4.5517  1106.5420 C.ar     344 DA      0.0000
    494 N7         3.3595     3.2477  1106.7069 N.ar     344 DA      0.0000
    495 C5         2.0260     2.8933  1106.5667 C.ar     344 DA      0.0000
    496 C6         1.3815     1.6379  1106.6147 C.ar     344 DA      0.0000
    497 N6         2.0042     0.4774  1106.8345 N.pl3    344 DA      0.0000
    498 N1         0.0289     1.6699  1106.4249 N.ar     344 DA      0.0000
    499 C2        -0.6225     2.8357  1106.2071 C.ar     344 DA      0.0000
    500 N3        -0.0826     4.0525  1106.1489 N.ar     344 DA      0.0000
    501 C4         1.2489     4.0019  1106.3357 C.ar     344 DA      0.0000
    502 H5'        3.9904     8.5224  1103.5894 H        344 DA      0.0000
    503 H5''       3.6268    10.0581  1104.4288 H        344 DA      0.0000
    504 H4'        1.5939     8.7786  1104.3411 H        344 DA      0.0000
    505 H3'        2.6121     9.5317  1106.8414 H        344 DA      0.0000
    506 H2'        3.2405     7.2835  1107.4209 H        344 DA      0.0000
    507 H2''       1.5651     7.3651  1108.0663 H        344 DA      0.0000
    508 H1'        0.6308     6.5375  1105.9833 H        344 DA      0.0000
    509 H8         4.2564     5.1504  1106.5740 H        344 DA      0.0000
    510 H2        -1.6914     2.7735  1106.0658 H        344 DA      0.0000
    511 H61        2.9981     0.3264  1106.7371 H        344 DA      0.0000
    512 H62        1.4966    -0.3787  1106.6630 H        344 DA      0.0000
    513 P          0.0381    10.2468  1107.6337 P.3      345 DA      0.0000
    514 OP1       -0.4697    11.5009  1106.9666 O.co2    345 DA      0.0000
    515 OP2        1.2475    10.4167  1108.4646 O.co2    345 DA      0.0000
    516 O5'       -1.2806     9.5227  1108.1645 O.3      345 DA      0.0000
    517 C5'       -2.4087     9.2344  1107.3402 C.3      345 DA      0.0000
    518 C4'       -3.0634     7.9676  1107.8625 C.3      345 DA      0.0000
    519 O4'       -2.1564     6.9019  1107.8907 O.3      345 DA      0.0000
    520 C3'       -3.7216     8.0324  1109.2298 C.3      345 DA      0.0000
    521 O3'       -5.1296     7.8112  1109.1520 O.3      345 DA      0.0000
    522 C2'       -2.9446     7.0020  1110.0585 C.3      345 DA      0.0000
    523 C1'       -2.3881     6.0580  1109.0647 C.3      345 DA      0.0000
    524 N9        -1.1213     5.3534  1109.3328 N.ar     345 DA      0.0000
    525 C8         0.1561     5.8457  1109.4480 C.ar     345 DA      0.0000
    526 N7         1.0737     4.9233  1109.6173 N.ar     345 DA      0.0000
    527 C5         0.3566     3.7317  1109.5803 C.ar     345 DA      0.0000
    528 C6         0.7683     2.3738  1109.7007 C.ar     345 DA      0.0000
    529 N6         2.0149     1.9610  1109.8923 N.pl3    345 DA      0.0000
    530 N1        -0.2327     1.4400  1109.6025 N.ar     345 DA      0.0000
    531 C2        -1.5277     1.8267  1109.4135 C.ar     345 DA      0.0000
    532 N3        -1.9788     3.0712  1109.3056 N.ar     345 DA      0.0000
    533 C4        -0.9846     3.9771  1109.3975 C.ar     345 DA      0.0000
    534 H5'       -2.0849     9.0850  1106.3101 H        345 DA      0.0000
    535 H5''      -3.1182    10.0605  1107.3861 H        345 DA      0.0000
    536 H4'       -3.8431     7.6989  1107.1498 H        345 DA      0.0000
    537 H3'       -3.5477     9.0217  1109.6530 H        345 DA      0.0000
    538 H2'       -2.1442     7.4852  1110.6188 H        345 DA      0.0000
    539 H2''      -3.6181     6.4799  1110.7381 H        345 DA      0.0000
    540 H1'       -3.1520     5.3204  1108.8187 H        345 DA      0.0000
    541 H8         0.3852     6.9002  1109.4031 H        345 DA      0.0000
    542 H2        -2.2626     1.0382  1109.3443 H        345 DA      0.0000
    543 H61        2.7435     2.5799  1110.2185 H        345 DA      0.0000
    544 H62        2.2430     0.9950  1109.7055 H        345 DA      0.0000
    545 P         -6.2492     8.5015  1110.1082 P.3      346 DT      0.0000
    546 OP1       -7.4726     8.9394  1109.3109 O.co2    346 DT      0.0000
    547 OP2       -5.6538     9.5353  1110.9288 O.co2    346 DT      0.0000
    548 O5'       -6.8361     7.1983  1110.9219 O.3      346 DT      0.0000
    549 C5'       -6.9616     6.0513  1109.9768 C.3      346 DT      0.0000
    550 C4'       -6.4702     4.8634  1110.7645 C.3      346 DT      0.0000
    551 O4'       -5.0735     4.8497  1110.9565 O.3      346 DT      0.0000
    552 C3'       -7.0720     4.8152  1112.1811 C.3      346 DT      0.0000
    553 O3'       -8.1736     3.9261  1112.1828 O.3      346 DT      0.0000
    554 C2'       -5.9094     4.3982  1113.0784 C.3      346 DT      0.0000
    555 C1'       -4.8984     3.9212  1112.1137 C.3      346 DT      0.0000
    556 N1        -3.4845     3.9409  1112.4535 N.am     346 DT      0.0000
    557 C2        -2.8541     2.7082  1112.5914 C.2      346 DT      0.0000
    558 O2        -3.5079     1.6769  1112.5034 O.2      346 DT      0.0000
    559 N3        -1.5158     2.6941  1112.8454 N.am     346 DT      0.0000
    560 C4        -0.7757     3.8354  1112.9656 C.2      346 DT      0.0000
    561 O4         0.4671     3.7391  1113.2208 O.2      346 DT      0.0000
    562 C5        -1.4424     5.0932  1112.7940 C.2      346 DT      0.0000
    563 C7        -0.6691     6.3797  1112.8815 C.3      346 DT      0.0000
    564 C6        -2.7620     5.1014  1112.5382 C.2      346 DT      0.0000
    565 H5'       -7.9997     5.9116  1109.6752 H        346 DT      0.0000
    566 H5''      -6.3318     6.2116  1109.1018 H        346 DT      0.0000
    567 H4'       -6.7562     3.9544  1110.2354 H        346 DT      0.0000
    568 H3'       -7.4100     5.8117  1112.4654 H        346 DT      0.0000
    569 H2'       -5.5340     5.2458  1113.6518 H        346 DT      0.0000
    570 H2''      -6.2121     3.5906  1113.7448 H        346 DT      0.0000
    571 H1'       -5.1670     2.9136  1111.7964 H        346 DT      0.0000
    572 H3        -1.0520     1.8030  1112.9491 H        346 DT      0.0000
    573 H6        -3.2650     6.0465  1112.3961 H        346 DT      0.0000
    574 H71        0.3774     6.1615  1113.0946 H        346 DT      0.0000
    575 H72       -0.7431     6.9130  1111.9337 H        346 DT      0.0000
    576 H73       -1.0811     6.9977  1113.6793 H        346 DT      0.0000
    577 P         -9.2357     3.6875  1113.2894 P.3      347 DT      0.0000
    578 OP1      -10.5282     3.0879  1112.6773 O.co2    347 DT      0.0000
    579 OP2       -9.4855     5.0096  1113.9194 O.co2    347 DT      0.0000
    580 O5'       -8.6344     2.4909  1114.1717 O.3      347 DT      0.0000
    581 C5'       -8.6338     1.2243  1113.4600 C.3      347 DT      0.0000
    582 C4'       -7.6847     0.2970  1114.1361 C.3      347 DT      0.0000
    583 O4'       -6.3336     0.7405  1114.1128 O.3      347 DT      0.0000
    584 C3'       -8.0268    -0.0023  1115.6027 C.3      347 DT      0.0000
    585 O3'       -7.8788    -1.3845  1115.8668 O.3      347 DT      0.0000
    586 C2'       -6.9223     0.7926  1116.3391 C.3      347 DT      0.0000
    587 C1'       -5.7674     0.4113  1115.4355 C.3      347 DT      0.0000
    588 N1        -4.5878     1.2025  1115.7332 N.am     347 DT      0.0000
    589 C2        -3.3598     0.5633  1115.7880 C.2      347 DT      0.0000
    590 O2        -3.3120    -0.6531  1115.5996 O.2      347 DT      0.0000
    591 N3        -2.2508     1.3161  1116.0539 N.am     347 DT      0.0000
    592 C4        -2.3183     2.6597  1116.2610 C.2      347 DT      0.0000
    593 O4        -1.2473     3.2934  1116.4843 O.2      347 DT      0.0000
    594 C5        -3.5864     3.3073  1116.1959 C.2      347 DT      0.0000
    595 C7        -3.7420     4.7853  1116.4058 C.3      347 DT      0.0000
    596 C6        -4.6652     2.5529  1115.9348 C.2      347 DT      0.0000
    597 H5'       -9.6362     0.7962  1113.4724 H        347 DT      0.0000
    598 H5''      -8.3172     1.3842  1112.4292 H        347 DT      0.0000
    599 H4'       -7.7217    -0.6500  1113.5976 H        347 DT      0.0000
    600 H3'       -9.0230     0.3539  1115.8652 H        347 DT      0.0000
    601 H2'       -7.1129     1.8657  1116.3378 H        347 DT      0.0000
    602 H2''      -6.7732     0.4180  1117.3518 H        347 DT      0.0000
    603 H1'       -5.5500    -0.6541  1115.5111 H        347 DT      0.0000
    604 H3        -1.3507     0.8600  1116.0984 H        347 DT      0.0000
    605 H6        -5.6322     3.0309  1115.8817 H        347 DT      0.0000
    606 H71       -2.7665     5.2293  1116.6047 H        347 DT      0.0000
    607 H72       -4.1702     5.2360  1115.5105 H        347 DT      0.0000
    608 H73       -4.4024     4.9643  1117.2542 H        347 DT      0.0000
    609 P         -8.7688    -2.5252  1116.4747 P.3      348 DC      0.0000
    610 OP1       -9.2226    -3.5019  1115.4068 O.co2    348 DC      0.0000
    611 OP2       -9.8426    -1.8322  1117.2097 O.co2    348 DC      0.0000
    612 O5'       -7.5740    -3.2670  1117.3007 O.3      348 DC      0.0000
    613 C5'       -6.5342    -3.4885  1116.2785 C.3      348 DC      0.0000
    614 C4'       -5.3567    -4.1090  1116.9750 C.3      348 DC      0.0000
    615 O4'       -4.3352    -3.1932  1117.2219 O.3      348 DC      0.0000
    616 C3'       -5.6852    -4.8496  1118.2665 C.3      348 DC      0.0000
    617 O3'       -5.2447    -6.1988  1118.1868 O.3      348 DC      0.0000
    618 C2'       -5.0433    -3.9387  1119.3152 C.3      348 DC      0.0000
    619 C1'       -3.9030    -3.3083  1118.6188 C.3      348 DC      0.0000
    620 N1        -3.6075    -1.9110  1118.9509 N.am     348 DC      0.0000
    621 C2        -2.2701    -1.6162  1119.2067 C.2      348 DC      0.0000
    622 O2        -1.4068    -2.4991  1119.2112 O.2      348 DC      0.0000
    623 N3        -1.9518    -0.3089  1119.4805 N.2      348 DC      0.0000
    624 C4        -2.8995     0.6719  1119.4706 C.2      348 DC      0.0000
    625 N4        -2.4926     1.9059  1119.7475 N.pl3    348 DC      0.0000
    626 C5        -4.2487     0.3607  1119.1926 C.2      348 DC      0.0000
    627 C6        -4.5456    -0.9282  1118.9278 C.2      348 DC      0.0000
    628 H5'       -6.9073    -4.1596  1115.5048 H        348 DC      0.0000
    629 H5''      -6.2426    -2.5369  1115.8343 H        348 DC      0.0000
    630 H4'       -4.9476    -4.8508  1116.2890 H        348 DC      0.0000
    631 H3'       -6.7657    -4.8417  1118.4097 H        348 DC      0.0000
    632 H2'       -5.7524    -3.1830  1119.6531 H        348 DC      0.0000
    633 H2''      -4.6893    -4.5285  1120.1608 H        348 DC      0.0000
    634 H1'       -3.0081    -3.9253  1118.6998 H        348 DC      0.0000
    635 H5        -5.0124     1.1243  1119.1920 H        348 DC      0.0000
    636 H6        -5.5662    -1.1885  1118.6888 H        348 DC      0.0000
    637 H41       -1.5185     2.0837  1119.9467 H        348 DC      0.0000
    638 H42       -3.1573     2.6662  1119.7588 H        348 DC      0.0000
    639 P         -5.7213    -7.4234  1119.1388 P.3      349 DA      0.0000
    640 OP1       -5.5314    -8.7017  1118.3451 O.co2    349 DA      0.0000
    641 OP2       -7.1401    -7.2010  1119.4844 O.co2    349 DA      0.0000
    642 O5'       -4.7124    -7.3334  1120.4358 O.3      349 DA      0.0000
    643 C5'       -3.2824    -7.3040  1120.1406 C.3      349 DA      0.0000
    644 C4'       -2.4940    -7.1211  1121.3959 C.3      349 DA      0.0000
    645 O4'       -2.0393    -5.7863  1121.6380 O.3      349 DA      0.0000
    646 C3'       -3.2367    -7.4525  1122.7011 C.3      349 DA      0.0000
    647 O3'       -2.2706    -7.6742  1123.7310 O.3      349 DA      0.0000
    648 C2'       -3.9727    -6.1149  1122.9157 C.3      349 DA      0.0000
    649 C1'       -2.7489    -5.2110  1122.7324 C.3      349 DA      0.0000
    650 N9        -3.1852    -3.8281  1122.6381 N.ar     349 DA      0.0000
    651 C8        -4.4394    -3.2959  1122.5223 C.ar     349 DA      0.0000
    652 N7        -4.4858    -1.9759  1122.5037 N.ar     349 DA      0.0000
    653 C5        -3.1512    -1.6111  1122.6112 C.ar     349 DA      0.0000
    654 C6        -2.5127    -0.3469  1122.6457 C.ar     349 DA      0.0000
    655 N6        -3.1406     0.8121  1122.5605 N.pl3    349 DA      0.0000
    656 N1        -1.1537    -0.3631  1122.7783 N.ar     349 DA      0.0000
    657 C2        -0.4619    -1.5422  1122.8585 C.ar     349 DA      0.0000
    658 N3        -0.9887    -2.7641  1122.8287 N.ar     349 DA      0.0000
    659 C4        -2.3383    -2.7289  1122.7056 C.ar     349 DA      0.0000
    660 H5'       -2.9939    -8.2436  1119.6695 H        349 DA      0.0000
    661 H5''      -3.0718    -6.4796  1119.4593 H        349 DA      0.0000
    662 H4'       -1.6179    -7.7668  1121.3370 H        349 DA      0.0000
    663 H3'       -3.9233    -8.2914  1122.5875 H        349 DA      0.0000
    664 H2'       -4.7422    -5.9352  1122.1649 H        349 DA      0.0000
    665 H2''      -4.3760    -6.0395  1123.9256 H        349 DA      0.0000
    666 H1'       -2.1263    -5.3057  1123.6221 H        349 DA      0.0000
    667 H8        -5.3258    -3.9088  1122.4513 H        349 DA      0.0000
    668 H2         0.6117    -1.4743  1122.9550 H        349 DA      0.0000
    669 H61       -2.8766     1.7702  1122.7405 H        349 DA      0.0000
    670 H62       -4.0958     0.7197  1122.2458 H        349 DA      0.0000
    671 P         -1.5074    -9.0736  1123.8715 P.3      350 DC      0.0000
    672 OP1       -1.5466    -9.8917  1122.6264 O.co2    350 DC      0.0000
    673 OP2       -2.2363    -9.7191  1125.0144 O.co2    350 DC      0.0000
    674 O5'       -0.0075    -8.6439  1124.1547 O.3      350 DC      0.0000
    675 C5'        0.8911    -8.2694  1123.0670 C.3      350 DC      0.0000
    676 C4'        1.8345    -7.2883  1123.7719 C.3      350 DC      0.0000
    677 O4'        1.0861    -6.1363  1124.0839 O.3      350 DC      0.0000
    678 C3'        2.4097    -7.8207  1125.0818 C.3      350 DC      0.0000
    679 O3'        3.8495    -7.7117  1125.1497 O.3      350 DC      0.0000
    680 C2'        1.6870    -7.0043  1126.1640 C.3      350 DC      0.0000
    681 C1'        1.4513    -5.7149  1125.4879 C.3      350 DC      0.0000
    682 N1         0.3170    -4.8650  1125.8407 N.am     350 DC      0.0000
    683 C2         0.5725    -3.4953  1125.8138 C.2      350 DC      0.0000
    684 O2         1.6880    -3.0344  1125.6069 O.2      350 DC      0.0000
    685 N3        -0.4706    -2.6600  1126.0669 N.2      350 DC      0.0000
    686 C4        -1.7260    -3.1135  1126.3003 C.2      350 DC      0.0000
    687 N4        -2.6646    -2.1975  1126.5312 N.pl3    350 DC      0.0000
    688 C5        -1.9769    -4.5132  1126.3068 C.2      350 DC      0.0000
    689 C6        -0.9428    -5.3313  1126.0574 C.2      350 DC      0.0000
    690 H5'        1.4317    -9.1342  1122.6821 H        350 DC      0.0000
    691 H5''       0.3426    -7.7705  1122.2679 H        350 DC      0.0000
    692 H4'        2.6495    -7.0210  1123.0992 H        350 DC      0.0000
    693 H3'        2.1311    -8.8691  1125.1877 H        350 DC      0.0000
    694 H2'        0.7472    -7.4760  1126.4510 H        350 DC      0.0000
    695 H2''       2.3291    -6.8688  1127.0343 H        350 DC      0.0000
    696 H1'        2.3689    -5.1268  1125.4746 H        350 DC      0.0000
    697 H5        -2.9641    -4.9037  1126.5053 H        350 DC      0.0000
    698 H6        -1.1164    -6.3968  1126.0277 H        350 DC      0.0000
    699 H41       -2.4261    -1.2161  1126.5202 H        350 DC      0.0000
    700 H42       -3.6151    -2.4842  1126.7173 H        350 DC      0.0000
    701 P         -2.5298     8.1022  1128.1092 P.3      350 DG      0.0000
    702 OP1       -3.0358     9.4983  1128.2880 O.co2    350 DG      0.0000
    703 OP2       -3.2722     7.3331  1127.0244 O.co2    350 DG      0.0000
    704 O5'       -0.8973     8.1359  1127.9020 O.3      350 DG      0.0000
    705 C5'       -0.0290     7.6939  1128.9978 C.3      350 DG      0.0000
    706 C4'        1.1393     6.9429  1128.3635 C.3      350 DG      0.0000
    707 O4'        0.8892     5.5671  1128.2677 O.3      350 DG      0.0000
    708 C3'        1.5029     7.4118  1126.9571 C.3      350 DG      0.0000
    709 O3'        2.9238     7.4536  1126.6902 O.3      350 DG      0.0000
    710 C2'        0.7893     6.3889  1126.0549 C.3      350 DG      0.0000
    711 C1'        0.9504     5.1222  1126.8787 C.3      350 DG      0.0000
    712 N9        -0.1393     4.1697  1126.6054 N.ar     350 DG      0.0000
    713 C8        -1.4781     4.4394  1126.4487 C.ar     350 DG      0.0000
    714 N7        -2.2111     3.3801  1126.2303 N.ar     350 DG      0.0000
    715 C5        -1.2952     2.3350  1126.2551 C.ar     350 DG      0.0000
    716 C6        -1.4670     0.9337  1126.0986 C.2      350 DG      0.0000
    717 O6        -2.5350     0.3365  1125.9018 O.2      350 DG      0.0000
    718 N1        -0.3043     0.2085  1126.1856 N.am     350 DG      0.0000
    719 C2         0.9029     0.7845  1126.4062 C.2      350 DG      0.0000
    720 N2         1.9409    -0.0449  1126.4696 N.pl3    350 DG      0.0000
    721 N3         1.1192     2.0961  1126.5639 N.2      350 DG      0.0000
    722 C4        -0.0221     2.8070  1126.4807 C.ar     350 DG      0.0000
    723 H5'        0.3380     8.5555  1129.5555 H        350 DG      0.0000
    724 H5''      -0.5802     7.0290  1129.6627 H        350 DG      0.0000
    725 H4'        2.0130     7.0817  1129.0002 H        350 DG      0.0000
    726 H3'        1.0763     8.4003  1126.7867 H        350 DG      0.0000
    727 H2'       -0.2608     6.6438  1125.9122 H        350 DG      0.0000
    728 H2''       1.2993     6.2954  1125.0961 H        350 DG      0.0000
    729 H1'        1.9158     4.6594  1126.6734 H        350 DG      0.0000
    730 H8        -1.8873     5.4374  1126.5015 H        350 DG      0.0000
    731 H1        -0.3503    -0.7949  1126.0808 H        350 DG      0.0000
    732 H21        1.8012    -1.0385  1126.3545 H        350 DG      0.0000
    733 H22        2.8688     0.3190  1126.6327 H        350 DG      0.0000
    734 P          3.3509     7.1995  1125.1667 P.3      349 DT      0.0000
    735 OP1        4.6362     7.8779  1124.7758 O.co2    349 DT      0.0000
    736 OP2        2.1904     7.8024  1124.4661 O.co2    349 DT      0.0000
    737 O5'        3.5062     5.6102  1125.0358 O.3      349 DT      0.0000
    738 C5'        4.8328     5.0531  1125.3034 C.3      349 DT      0.0000
    739 C4'        4.9659     3.7497  1124.5464 C.3      349 DT      0.0000
    740 O4'        3.7631     3.0020  1124.5191 O.3      349 DT      0.0000
    741 C3'        5.3651     3.9432  1123.0917 C.3      349 DT      0.0000
    742 O3'        6.2852     2.9462  1122.5965 O.3      349 DT      0.0000
    743 C2'        4.0374     3.8930  1122.3688 C.3      349 DT      0.0000
    744 C1'        3.3740     2.7687  1123.1469 C.3      349 DT      0.0000
    745 N1         1.9215     2.9483  1122.9956 N.am     349 DT      0.0000
    746 C2         1.1457     1.7986  1123.1024 C.2      349 DT      0.0000
    747 O2         1.6735     0.7079  1123.2921 O.2      349 DT      0.0000
    748 N3        -0.2079     1.9457  1122.9822 N.am     349 DT      0.0000
    749 C4        -0.7846     3.1611  1122.7646 C.2      349 DT      0.0000
    750 O4        -2.0557     3.1988  1122.6671 O.2      349 DT      0.0000
    751 C5         0.0359     4.3203  1122.6582 C.2      349 DT      0.0000
    752 C7        -0.5895     5.6664  1122.4293 C.3      349 DT      0.0000
    753 C6         1.3574     4.1707  1122.7800 C.2      349 DT      0.0000
    754 H5'        5.5996     5.7523  1124.9697 H        349 DT      0.0000
    755 H5''       4.9445     4.8694  1126.3720 H        349 DT      0.0000
    756 H4'        5.7322     3.1474  1125.0343 H        349 DT      0.0000
    757 H3'        5.8054     4.9326  1122.9677 H        349 DT      0.0000
    758 H2'        3.4885     4.8303  1122.4604 H        349 DT      0.0000
    759 H2''       4.1715     3.6187  1121.3224 H        349 DT      0.0000
    760 H1'        3.6984     1.7890  1122.7963 H        349 DT      0.0000
    761 H3        -0.7982     1.1295  1123.0569 H        349 DT      0.0000
    762 H6         1.9948     5.0393  1122.7059 H        349 DT      0.0000
    763 H71       -1.6719     5.5577  1122.3606 H        349 DT      0.0000
    764 H72       -0.3430     6.3274  1123.2602 H        349 DT      0.0000
    765 H73       -0.2074     6.0915  1121.5012 H        349 DT      0.0000
    766 P          7.5083     3.7540  1121.8182 P.3      348 DG      0.0000
    767 OP1        8.6924     4.0206  1122.6894 O.co2    348 DG      0.0000
    768 OP2        6.7489     4.9630  1121.4126 O.co2    348 DG      0.0000
    769 O5'        7.9389     2.6580  1120.7373 O.3      348 DG      0.0000
    770 C5'        8.7683     1.5464  1121.1608 C.3      348 DG      0.0000
    771 C4'        8.0108     0.3027  1120.7131 C.3      348 DG      0.0000
    772 O4'        6.6326     0.4628  1120.9838 O.3      348 DG      0.0000
    773 C3'        8.1512    -0.0196  1119.2253 C.3      348 DG      0.0000
    774 O3'        8.6454    -1.3305  1119.0168 O.3      348 DG      0.0000
    775 C2'        6.7748     0.2599  1118.6486 C.3      348 DG      0.0000
    776 C1'        5.8655     0.0415  1119.8348 C.3      348 DG      0.0000
    777 N9         4.6428     0.8397  1119.7112 N.ar     348 DG      0.0000
    778 C8         4.5248     2.1914  1119.5523 C.ar     348 DG      0.0000
    779 N7         3.2842     2.6072  1119.4743 N.ar     348 DG      0.0000
    780 C5         2.5292     1.4461  1119.6118 C.ar     348 DG      0.0000
    781 C6         1.1268     1.2239  1119.6213 C.2      348 DG      0.0000
    782 O6         0.2424     2.0683  1119.5222 O.2      348 DG      0.0000
    783 N1         0.7596    -0.0834  1119.7703 N.am     348 DG      0.0000
    784 C2         1.6841    -1.0909  1119.9031 C.2      348 DG      0.0000
    785 N2         1.1890    -2.3215  1120.0388 N.pl3    348 DG      0.0000
    786 N3         3.0136    -0.9506  1119.9074 N.2      348 DG      0.0000
    787 C4         3.3624     0.3499  1119.7567 C.ar     348 DG      0.0000
    788 H5'        9.7464     1.5931  1120.6821 H        348 DG      0.0000
    789 H5''       8.8789     1.5503  1122.2452 H        348 DG      0.0000
    790 H4'        8.3776    -0.5488  1121.2861 H        348 DG      0.0000
    791 H3'        8.8565     0.6863  1118.7868 H        348 DG      0.0000
    792 H2'        6.7031     1.2840  1118.2823 H        348 DG      0.0000
    793 H2''       6.5424    -0.4481  1117.8531 H        348 DG      0.0000
    794 H1'        5.6136    -1.0155  1119.9218 H        348 DG      0.0000
    795 H8         5.3746     2.8556  1119.4963 H        348 DG      0.0000
    796 H1        -0.2230    -0.3167  1119.7831 H        348 DG      0.0000
    797 H21        0.1894    -2.4664  1120.0398 H        348 DG      0.0000
    798 H22        1.8134    -3.1087  1120.1406 H        348 DG      0.0000
    799 P          8.1926    -2.5721  1118.1505 P.3      347 DA      0.0000
    800 OP1        8.4203    -3.8724  1118.9319 O.co2    347 DA      0.0000
    801 OP2        9.0420    -2.5366  1116.9578 O.co2    347 DA      0.0000
    802 O5'        6.5782    -2.4404  1117.9757 O.3      347 DA      0.0000
    803 C5'        5.8578    -3.0105  1119.1322 C.3      347 DA      0.0000
    804 C4'        5.0404    -4.1635  1118.6044 C.3      347 DA      0.0000
    805 O4'        3.6979    -3.8134  1118.3821 O.3      347 DA      0.0000
    806 C3'        5.5504    -4.6910  1117.2639 C.3      347 DA      0.0000
    807 O3'        5.5192    -6.0962  1117.1887 O.3      347 DA      0.0000
    808 C2'        4.7110    -3.9119  1116.2673 C.3      347 DA      0.0000
    809 C1'        3.4573    -3.5069  1116.9912 C.3      347 DA      0.0000
    810 N9         3.1335    -2.0879  1116.7657 N.ar     347 DA      0.0000
    811 C8         3.9887    -1.0233  1116.5793 C.ar     347 DA      0.0000
    812 N7         3.3866     0.1271  1116.3834 N.ar     347 DA      0.0000
    813 C5         2.0392    -0.2003  1116.4703 C.ar     347 DA      0.0000
    814 C6         0.8743     0.5950  1116.3646 C.ar     347 DA      0.0000
    815 N6         0.8909     1.8990  1116.1521 N.pl3    347 DA      0.0000
    816 N1        -0.3121    -0.0617  1116.4883 N.ar     347 DA      0.0000
    817 C2        -0.3595    -1.4081  1116.7129 C.ar     347 DA      0.0000
    818 N3         0.6963    -2.2111  1116.8287 N.ar     347 DA      0.0000
    819 C4         1.8695    -1.5471  1116.6926 C.ar     347 DA      0.0000
    820 H5'        6.5674    -3.3640  1119.8803 H        347 DA      0.0000
    821 H5''       5.2010    -2.2582  1119.5689 H        347 DA      0.0000
    822 H4'        5.0724    -4.9744  1119.3321 H        347 DA      0.0000
    823 H3'        6.5866    -4.3723  1117.1508 H        347 DA      0.0000
    824 H2'        4.4651    -4.5391  1115.4105 H        347 DA      0.0000
    825 H2''       5.2527    -3.0257  1115.9368 H        347 DA      0.0000
    826 H1'        2.6296    -4.1190  1116.6330 H        347 DA      0.0000
    827 H8         5.0637    -1.1265  1116.5932 H        347 DA      0.0000
    828 H2        -1.3362    -1.8598  1116.8041 H        347 DA      0.0000
    829 H61        0.1345     2.4894  1116.4676 H        347 DA      0.0000
    830 H62        1.6736     2.3126  1115.6659 H        347 DA      0.0000
    831 P          5.1436    -7.0722  1116.0041 P.3      346 DA      0.0000
    832 OP1        5.0089    -8.5332  1116.5240 O.co2    346 DA      0.0000
    833 OP2        6.3101    -6.9941  1115.0704 O.co2    346 DA      0.0000
    834 O5'        3.7055    -6.6707  1115.5014 O.3      346 DA      0.0000
    835 C5'        2.5513    -7.4065  1115.9573 C.3      346 DA      0.0000
    836 C4'        1.3469    -6.8180  1115.2553 C.3      346 DA      0.0000
    837 O4'        1.3751    -5.4243  1115.1346 O.3      346 DA      0.0000
    838 C3'        1.1310    -7.3722  1113.8478 C.3      346 DA      0.0000
    839 O3'       -0.0879    -8.1385  1113.8164 O.3      346 DA      0.0000
    840 C2'        1.2385    -6.1395  1112.9482 C.3      346 DA      0.0000
    841 C1'        0.8042    -5.0209  1113.8460 C.3      346 DA      0.0000
    842 N9         1.3441    -3.6988  1113.5464 N.ar     346 DA      0.0000
    843 C8         2.6547    -3.3144  1113.3517 C.ar     346 DA      0.0000
    844 N7         2.8041    -2.0248  1113.1462 N.ar     346 DA      0.0000
    845 C5         1.5206    -1.5198  1113.2208 C.ar     346 DA      0.0000
    846 C6         1.0138    -0.2077  1113.0873 C.ar     346 DA      0.0000
    847 N6         1.7713     0.8575  1112.8441 N.pl3    346 DA      0.0000
    848 N1        -0.3447    -0.0883  1113.2361 N.ar     346 DA      0.0000
    849 C2        -1.1366    -1.1482  1113.4887 C.ar     346 DA      0.0000
    850 N3        -0.7294    -2.4135  1113.6275 N.ar     346 DA      0.0000
    851 C4         0.6094    -2.5279  1113.4803 C.ar     346 DA      0.0000
    852 H5'        2.6550    -8.4611  1115.7021 H        346 DA      0.0000
    853 H5''       2.4429    -7.2949  1117.0361 H        346 DA      0.0000
    854 H4'        0.4676    -7.0761  1115.8455 H        346 DA      0.0000
    855 H3'        1.9600    -8.0397  1113.6128 H        346 DA      0.0000
    856 H2'        2.2636    -5.9922  1112.6084 H        346 DA      0.0000
    857 H2''       0.5637    -6.2290  1112.0969 H        346 DA      0.0000
    858 H1'       -0.2835    -4.9826  1113.9071 H        346 DA      0.0000
    859 H8         3.4816    -4.0090  1113.3667 H        346 DA      0.0000
    860 H2        -2.1953    -0.9586  1113.5877 H        346 DA      0.0000
    861 H61        1.3804     1.7412  1113.1381 H        346 DA      0.0000
    862 H62        2.6742     0.7880  1112.3968 H        346 DA      0.0000
    863 P         -0.5450    -8.8204  1112.4314 P.3      345 DT      0.0000
    864 OP1       -1.6228    -9.8587  1112.4895 O.co2    345 DT      0.0000
    865 OP2        0.7762    -9.2962  1111.9188 O.co2    345 DT      0.0000
    866 O5'       -1.2310    -7.4740  1111.7282 O.3      345 DT      0.0000
    867 C5'       -1.9935    -6.7498  1112.7406 C.3      345 DT      0.0000
    868 C4'       -3.0172    -5.9003  1112.0576 C.3      345 DT      0.0000
    869 O4'       -2.6133    -4.5759  1111.8772 O.3      345 DT      0.0000
    870 C3'       -3.4509    -6.4219  1110.6964 C.3      345 DT      0.0000
    871 O3'       -4.8426    -6.2100  1110.4291 O.3      345 DT      0.0000
    872 C2'       -2.4871    -5.6300  1109.8030 C.3      345 DT      0.0000
    873 C1'       -2.5325    -4.2590  1110.4430 C.3      345 DT      0.0000
    874 N1        -1.2772    -3.5194  1110.2131 N.am     345 DT      0.0000
    875 C2        -1.3592    -2.1434  1110.0915 C.2      345 DT      0.0000
    876 O2        -2.4460    -1.5643  1110.1282 O.2      345 DT      0.0000
    877 N3        -0.1954    -1.4431  1109.9240 N.am     345 DT      0.0000
    878 C4         1.0152    -2.0610  1109.8755 C.2      345 DT      0.0000
    879 O4         2.0381    -1.3365  1109.6900 O.2      345 DT      0.0000
    880 C5         1.0794    -3.4748  1110.0239 C.2      345 DT      0.0000
    881 C7         2.4058    -4.1950  1109.9718 C.3      345 DT      0.0000
    882 C6        -0.0655    -4.1437  1110.1969 C.2      345 DT      0.0000
    883 H5'       -2.4895    -7.4596  1113.4027 H        345 DT      0.0000
    884 H5''      -1.3218    -6.1170  1113.3206 H        345 DT      0.0000
    885 H4'       -3.9016    -5.8848  1112.6946 H        345 DT      0.0000
    886 H3'       -3.2238    -7.4855  1110.6243 H        345 DT      0.0000
    887 H2'       -1.4816    -6.0496  1109.8336 H        345 DT      0.0000
    888 H2''      -2.8567    -5.5895  1108.7784 H        345 DT      0.0000
    889 H1'       -3.3999    -3.6895  1110.1091 H        345 DT      0.0000
    890 H3        -0.2367    -0.4380  1109.8339 H        345 DT      0.0000
    891 H6        -0.0289    -5.2151  1110.3283 H        345 DT      0.0000
    892 H71        2.5697    -4.5833  1108.9666 H        345 DT      0.0000
    893 H72        2.3988    -5.0207  1110.6834 H        345 DT      0.0000
    894 H73        3.2063    -3.5011  1110.2283 H        345 DT      0.0000
    895 P         -5.3519    -6.6518  1108.9392 P.3      344 DT      0.0000
    896 OP1       -6.3207    -7.8266  1109.0871 O.co2    344 DT      0.0000
    897 OP2       -4.0911    -7.1178  1108.2693 O.co2    344 DT      0.0000
    898 O5'       -6.0234    -5.4163  1108.2871 O.3      344 DT      0.0000
    899 C5'       -6.6888    -4.4011  1109.0385 C.3      344 DT      0.0000
    900 C4'       -6.5719    -3.1119  1108.2905 C.3      344 DT      0.0000
    901 O4'       -5.3199    -2.4834  1108.2335 O.3      344 DT      0.0000
    902 C3'       -7.0562    -3.0924  1106.8245 C.3      344 DT      0.0000
    903 O3'       -7.5881    -1.7682  1106.7207 O.3      344 DT      0.0000
    904 C2'       -5.7339    -3.2437  1106.0607 C.3      344 DT      0.0000
    905 C1'       -4.9508    -2.2044  1106.8365 C.3      344 DT      0.0000
    906 N1        -3.4916    -2.2923  1106.7303 N.am     344 DT      0.0000
    907 C2        -2.8144    -1.0654  1106.7297 C.2      344 DT      0.0000
    908 O2        -3.4306     0.0015  1106.7727 O.2      344 DT      0.0000
    909 N3        -1.4508    -1.1088  1106.6762 N.am     344 DT      0.0000
    910 C4        -0.7515    -2.2775  1106.6165 C.2      344 DT      0.0000
    911 O4         0.5131    -2.2121  1106.5541 O.2      344 DT      0.0000
    912 C5        -1.4636    -3.5078  1106.6247 C.2      344 DT      0.0000
    913 C7        -0.6993    -4.8137  1106.5633 C.3      344 DT      0.0000
    914 C6        -2.7973    -3.4605  1106.6912 C.2      344 DT      0.0000
    915 H5'       -7.7400    -4.6622  1109.1607 H        344 DT      0.0000
    916 H5''      -6.2192    -4.3016  1110.0171 H        344 DT      0.0000
    917 H4'       -7.2213    -2.4130  1108.8178 H        344 DT      0.0000
    918 H3'       -7.7824    -3.8723  1106.5958 H        344 DT      0.0000
    919 H2'       -5.8311    -2.9898  1105.0052 H        344 DT      0.0000
    920 H2''      -5.3110    -4.2395  1106.1923 H        344 DT      0.0000
    921 H1'       -5.2835    -1.2046  1106.5574 H        344 DT      0.0000
    922 H3        -0.9387    -0.2383  1106.6811 H        344 DT      0.0000
    923 H6        -3.3471    -4.3898  1106.7149 H        344 DT      0.0000
    924 H71        0.3700    -4.6076  1106.5145 H        344 DT      0.0000
    925 H72       -1.0025    -5.3706  1105.6767 H        344 DT      0.0000
    926 H73       -0.9153    -5.4034  1107.4542 H        344 DT      0.0000
    927 P         -8.4724    -1.2073  1105.5745 P.3      343 DC      0.0000
    928 OP1       -9.6831    -0.4977  1106.1836 O.co2    343 DC      0.0000
    929 OP2       -8.9290    -2.3988  1104.7926 O.co2    343 DC      0.0000
    930 O5'       -7.4266    -0.2004  1104.8351 O.3      343 DC      0.0000
    931 C5'       -7.1493     1.0428  1105.5596 C.3      343 DC      0.0000
    932 C4'       -6.9361     2.1015  1104.5091 C.3      343 DC      0.0000
    933 O4'       -5.5701     2.3424  1104.2638 O.3      343 DC      0.0000
    934 C3'       -7.5589     1.8013  1103.1446 C.3      343 DC      0.0000
    935 O3'       -8.0238     2.9518  1102.4354 O.3      343 DC      0.0000
    936 C2'       -6.4000     1.0650  1102.4585 C.3      343 DC      0.0000
    937 C1'       -5.1757     1.7968  1103.0051 C.3      343 DC      0.0000
    938 N1        -4.0721     0.8150  1103.1229 N.am     343 DC      0.0000
    939 C2        -2.7731     1.3210  1103.1401 C.2      343 DC      0.0000
    940 O2        -2.5594     2.5392  1103.0715 O.2      343 DC      0.0000
    941 N3        -1.7502     0.4174  1103.2434 N.2      343 DC      0.0000
    942 C4        -1.9731    -0.9210  1103.3141 C.2      343 DC      0.0000
    943 N4        -0.9421    -1.7626  1103.4161 N.pl3    343 DC      0.0000
    944 C5        -3.3087    -1.4110  1103.2890 C.2      343 DC      0.0000
    945 C6        -4.3129    -0.5227  1103.1954 C.2      343 DC      0.0000
    946 H5'       -7.9944     1.3061  1106.1956 H        343 DC      0.0000
    947 H5''      -6.2489     0.9298  1106.1635 H        343 DC      0.0000
    948 H4'       -7.3756     3.0283  1104.8778 H        343 DC      0.0000
    949 H3'       -8.3893     1.1082  1103.2788 H        343 DC      0.0000
    950 H2'       -6.4621     1.1563  1101.3741 H        343 DC      0.0000
    951 H2''      -6.3835     0.0161  1102.7545 H        343 DC      0.0000
    952 H1'       -4.8884     2.5993  1102.3257 H        343 DC      0.0000
    953 H5        -3.5105    -2.4706  1103.3438 H        343 DC      0.0000
    954 H6        -5.3327    -0.8778  1103.1773 H        343 DC      0.0000
    955 H41        0.0021    -1.4044  1103.4367 H        343 DC      0.0000
    956 H42       -1.1061    -2.7576  1103.4724 H        343 DC      0.0000
    957 P         -7.9514     3.1742  1100.8034 P.3      342 DA      0.0000
    958 OP1       -9.0113     4.1818  1100.4139 O.co2    342 DA      0.0000
    959 OP2       -8.1441     1.8130  1100.2333 O.co2    342 DA      0.0000
    960 O5'       -6.5224     3.8662  1100.6378 O.3      342 DA      0.0000
    961 C5'       -6.3725     5.2636  1101.1032 C.3      342 DA      0.0000
    962 C4'       -5.2368     5.7622  1100.2260 C.3      342 DA      0.0000
    963 O4'       -4.0499     5.0045  1100.4933 O.3      342 DA      0.0000
    964 C3'       -5.4935     5.5631  1098.7216 C.3      342 DA      0.0000
    965 O3'       -4.6214     6.3565  1097.9325 O.3      342 DA      0.0000
    966 C2'       -5.0057     4.1148  1098.5341 C.3      342 DA      0.0000
    967 C1'       -3.6650     4.3284  1099.2888 C.3      342 DA      0.0000
    968 N9        -3.1101     2.9865  1099.4342 N.ar     342 DA      0.0000
    969 C8        -3.8217     1.8099  1099.5070 C.ar     342 DA      0.0000
    970 N7        -3.0620     0.7495  1099.6217 N.ar     342 DA      0.0000
    971 C5        -1.7580     1.2762  1099.6153 C.ar     342 DA      0.0000
    972 C6        -0.4931     0.6342  1099.7152 C.ar     342 DA      0.0000
    973 N6        -0.3381    -0.6873  1099.8381 N.pl3    342 DA      0.0000
    974 N1         0.5728     1.4819  1099.6801 N.ar     342 DA      0.0000
    975 C2         0.4159     2.8231  1099.5612 C.ar     342 DA      0.0000
    976 N3        -0.7380     3.4905  1099.4697 N.ar     342 DA      0.0000
    977 C4        -1.7822     2.6439  1099.4973 C.ar     342 DA      0.0000
    978 H5'       -7.2841     5.8374  1100.9365 H        342 DA      0.0000
    979 H5''      -6.0872     5.2907  1102.1549 H        342 DA      0.0000
    980 H4'       -5.0521     6.8169  1100.4299 H        342 DA      0.0000
    981 H3'       -6.5416     5.6932  1098.4519 H        342 DA      0.0000
    982 H2'       -5.6530     3.3820  1099.0157 H        342 DA      0.0000
    983 H2''      -4.8424     3.8780  1097.4827 H        342 DA      0.0000
    984 H1'       -2.9943     4.9544  1098.7003 H        342 DA      0.0000
    985 H8        -4.9003     1.7660  1099.4730 H        342 DA      0.0000
    986 H2         1.3191     3.4148  1099.5380 H        342 DA      0.0000
    987 H61       -1.1476    -1.2906  1099.8628 H        342 DA      0.0000
    988 H62        0.5888    -1.0828  1099.9062 H        342 DA      0.0000
    989 P         -5.1928     7.3017  1096.7916 P.3      341 DC      0.0000
    990 OP1       -5.5865     8.5449  1097.5719 O.co2    341 DC      0.0000
    991 OP2       -6.3160     6.6977  1096.0660 O.co2    341 DC      0.0000
    992 O5'       -3.8752     7.4289  1095.8157 O.3      341 DC      0.0000
    993 C5'       -2.6222     7.8400  1096.4848 C.3      341 DC      0.0000
    994 C4'       -1.4743     7.1084  1095.8407 C.3      341 DC      0.0000
    995 O4'       -1.1479     5.8793  1096.4779 O.3      341 DC      0.0000
    996 C3'       -1.7342     6.7696  1094.3629 C.3      341 DC      0.0000
    997 O3'       -0.5664     6.7911  1093.5516 O.3      341 DC      0.0000
    998 C2'       -2.2139     5.2904  1094.5286 C.3      341 DC      0.0000
    999 C1'       -0.9783     4.9082  1095.4241 C.3      341 DC      0.0000
   1000 N1        -1.0538     3.4904  1095.6620 N.am     341 DC      0.0000
   1001 C2         0.1112     2.8110  1095.9792 C.2      341 DC      0.0000
   1002 O2         1.2622     3.2397  1096.1196 O.2      341 DC      0.0000
   1003 N3         0.0325     1.4604  1096.1774 N.2      341 DC      0.0000
   1004 C4        -1.1475     0.7787  1096.0614 C.2      341 DC      0.0000
   1005 N4        -1.1780    -0.5456  1096.2775 N.pl3    341 DC      0.0000
   1006 C5        -2.3346     1.4894  1095.7318 C.2      341 DC      0.0000
   1007 C6        -2.2321     2.8098  1095.5401 C.2      341 DC      0.0000
   1008 H5'       -2.4817     8.9152  1096.3733 H        341 DC      0.0000
   1009 H5''      -2.6715     7.5849  1097.5434 H        341 DC      0.0000
   1010 H4'       -0.5970     7.7536  1095.8875 H        341 DC      0.0000
   1011 H3'       -2.5204     7.3975  1093.9439 H        341 DC      0.0000
   1012 H2'       -3.1691     5.1995  1095.0457 H        341 DC      0.0000
   1013 H2''      -2.2113     4.7528  1093.5803 H        341 DC      0.0000
   1014 H1'       -0.0607     5.1300  1094.8792 H        341 DC      0.0000
   1015 H5        -3.2836     0.9822  1095.6396 H        341 DC      0.0000
   1016 H6        -3.1217     3.3627  1095.2768 H        341 DC      0.0000
   1017 H41       -0.3295    -1.0378  1096.5180 H        341 DC      0.0000
   1018 H42       -2.0496    -1.0501  1096.1995 H        341 DC      0.0000
   1019 P          6.1809    -7.8853  1130.1508 P.3      351 DG      0.0000
   1020 OP1        6.4309    -9.3478  1130.1492 O.co2    351 DG      0.0000
   1021 OP2        5.0972    -7.6221  1131.2065 O.co2    351 DG      0.0000
   1022 O5'        7.4481    -6.9397  1130.3292 O.3      351 DG      0.0000
   1023 C5'        8.1698    -6.1897  1129.3292 C.3      351 DG      0.0000
   1024 C4'        8.3266    -4.7684  1129.8280 C.3      351 DG      0.0000
   1025 O4'        7.2648    -3.9387  1129.4088 O.3      351 DG      0.0000
   1026 C3'        8.4801    -4.5538  1131.3202 C.3      351 DG      0.0000
   1027 O3'        9.6739    -3.7864  1131.6322 O.3      351 DG      0.0000
   1028 C2'        7.1962    -3.8649  1131.7420 C.3      351 DG      0.0000
   1029 C1'        6.7436    -3.1598  1130.4864 C.3      351 DG      0.0000
   1030 N9         5.2722    -3.0743  1130.4573 N.ar     351 DG      0.0000
   1031 C8         4.3369    -4.0558  1130.6862 C.ar     351 DG      0.0000
   1032 N7         3.0928    -3.6429  1130.5965 N.ar     351 DG      0.0000
   1033 C5         3.2141    -2.2924  1130.2795 C.ar     351 DG      0.0000
   1034 C6         2.2439    -1.2851  1130.0536 C.2      351 DG      0.0000
   1035 O6         1.0171    -1.3898  1130.0749 O.2      351 DG      0.0000
   1036 N1         2.7471    -0.0446  1129.7721 N.am     351 DG      0.0000
   1037 C2         4.0158     0.2058  1129.7114 C.2      351 DG      0.0000
   1038 N2         4.2150     1.4311  1129.4146 N.pl3    351 DG      0.0000
   1039 N3         5.0461    -0.7166  1129.9202 N.2      351 DG      0.0000
   1040 C4         4.5453    -1.9300  1130.1927 C.ar     351 DG      0.0000
   1041 H5'        9.1517    -6.6357  1129.1704 H        351 DG      0.0000
   1042 H5''       7.6102    -6.1912  1128.3938 H        351 DG      0.0000
   1043 H4'        9.2304    -4.3744  1129.3633 H        351 DG      0.0000
   1044 H3'        8.5419    -5.5235  1131.8141 H        351 DG      0.0000
   1045 H2'        6.4535    -4.5925  1132.0690 H        351 DG      0.0000
   1046 H2''       7.3948    -3.1422  1132.5335 H        351 DG      0.0000
   1047 H1'        7.1701    -2.1572  1130.4545 H        351 DG      0.0000
   1048 H8         4.6017    -5.0766  1130.9193 H        351 DG      0.0000
   1049 H1         2.0985     0.7112  1129.6037 H        351 DG      0.0000
   1050 H21        3.4299     2.0498  1129.2703 H        351 DG      0.0000
   1051 H22        5.1578     1.7819  1129.3242 H        351 DG      0.0000
   1052 P          9.9423    -3.1701  1133.0607 P.3      352 DT      0.0000
   1053 OP1       11.3567    -3.2609  1133.5724 O.co2    352 DT      0.0000
   1054 OP2        9.1333    -4.1037  1133.9794 O.co2    352 DT      0.0000
   1055 O5'        9.3095    -1.7553  1133.0893 O.3      352 DT      0.0000
   1056 C5'       10.0863    -0.5345  1132.9453 C.3      352 DT      0.0000
   1057 C4'        9.0614     0.5789  1133.0028 C.3      352 DT      0.0000
   1058 O4'        7.7570     0.1175  1132.7276 O.3      352 DT      0.0000
   1059 C3'        8.9390     1.3105  1134.3155 C.3      352 DT      0.0000
   1060 O3'        9.3537     2.6715  1134.1273 O.3      352 DT      0.0000
   1061 C2'        7.4644     1.2215  1134.7078 C.3      352 DT      0.0000
   1062 C1'        6.8249     1.0457  1133.3550 C.3      352 DT      0.0000
   1063 N1         5.5320     0.3677  1133.4516 N.am     352 DT      0.0000
   1064 C2         4.4079     1.1229  1133.2537 C.2      352 DT      0.0000
   1065 O2         4.4557     2.3275  1133.0155 O.2      352 DT      0.0000
   1066 N3         3.2023     0.4795  1133.3348 N.am     352 DT      0.0000
   1067 C4         3.0911    -0.8437  1133.5907 C.2      352 DT      0.0000
   1068 O4         1.9164    -1.2938  1133.6360 O.2      352 DT      0.0000
   1069 C5         4.2787    -1.6184  1133.7904 C.2      352 DT      0.0000
   1070 C7         4.1996    -3.0840  1134.0703 C.3      352 DT      0.0000
   1071 C6         5.4535    -0.9808  1133.7089 C.2      352 DT      0.0000
   1072 H5'       10.8054    -0.4379  1133.7587 H        352 DT      0.0000
   1073 H5''      10.6002    -0.5253  1131.9841 H        352 DT      0.0000
   1074 H4'        9.3229     1.3105  1132.2383 H        352 DT      0.0000
   1075 H3'        9.5588     0.8302  1135.0726 H        352 DT      0.0000
   1076 H2'        7.2725     0.3669  1135.3566 H        352 DT      0.0000
   1077 H2''       7.1313     2.1472  1135.1770 H        352 DT      0.0000
   1078 H1'        6.7543     1.9869  1132.8097 H        352 DT      0.0000
   1079 H3         2.3584     1.0170  1133.1973 H        352 DT      0.0000
   1080 H6         6.3656    -1.5419  1133.8493 H        352 DT      0.0000
   1081 H71        4.4403    -3.6408  1133.1647 H        352 DT      0.0000
   1082 H72        3.1905    -3.3376  1134.3950 H        352 DT      0.0000
   1083 H73        4.9099    -3.3428  1134.8556 H        352 DT      0.0000
   1084 P         10.1556     3.2754  1135.4073 P.3      353 DG      0.0000
   1085 OP1       11.1814     4.1456  1134.6922 O.co2    353 DG      0.0000
   1086 OP2       10.7343     2.1774  1136.1608 O.co2    353 DG      0.0000
   1087 O5'        8.8889     4.1050  1136.0168 O.3      353 DG      0.0000
   1088 C5'        8.2150     4.8398  1134.9262 C.3      353 DG      0.0000
   1089 C4'        6.8883     5.3092  1135.4462 C.3      353 DG      0.0000
   1090 O4'        5.8017     4.4407  1135.2657 O.3      353 DG      0.0000
   1091 C3'        6.9331     5.6574  1136.9543 C.3      353 DG      0.0000
   1092 O3'        6.4427     7.0107  1137.1131 O.3      353 DG      0.0000
   1093 C2'        6.1147     4.5638  1137.6068 C.3      353 DG      0.0000
   1094 C1'        5.0848     4.2594  1136.5253 C.3      353 DG      0.0000
   1095 N9         4.5124     2.9191  1136.6948 N.ar     353 DG      0.0000
   1096 C8         5.1458     1.7546  1137.0310 C.ar     353 DG      0.0000
   1097 N7         4.3567     0.7064  1137.1168 N.ar     353 DG      0.0000
   1098 C5         3.1080     1.2284  1136.7867 C.ar     353 DG      0.0000
   1099 C6         1.8322     0.6024  1136.6924 C.2      353 DG      0.0000
   1100 O6         1.5473    -0.5891  1136.8847 O.2      353 DG      0.0000
   1101 N1         0.8043     1.4539  1136.3574 N.am     353 DG      0.0000
   1102 C2         1.0119     2.7808  1136.1336 C.2      353 DG      0.0000
   1103 N2        -0.1028     3.4563  1135.8248 N.pl3    353 DG      0.0000
   1104 N3         2.1824     3.4105  1136.2046 N.2      353 DG      0.0000
   1105 C4         3.1879     2.5805  1136.5312 C.ar     353 DG      0.0000
   1106 H5'        8.8199     5.6953  1134.6257 H        353 DG      0.0000
   1107 H5''       8.0636     4.1775  1134.0738 H        353 DG      0.0000
   1108 H4'        6.6484     6.2306  1134.9157 H        353 DG      0.0000
   1109 H3'        7.9623     5.6008  1137.3090 H        353 DG      0.0000
   1110 H2'        6.7264     3.6896  1137.8298 H        353 DG      0.0000
   1111 H2''       5.6278     4.9335  1138.5092 H        353 DG      0.0000
   1112 H1'        4.2831     4.9955  1136.5842 H        353 DG      0.0000
   1113 H8         6.2093     1.7002  1137.2116 H        353 DG      0.0000
   1114 H1        -0.1317     1.0836  1136.2750 H        353 DG      0.0000
   1115 H21       -0.9884     2.9733  1135.7746 H        353 DG      0.0000
   1116 H22       -0.0578     4.4486  1135.6421 H        353 DG      0.0000
   1117 P          6.4580     7.7289  1138.5015 P.3      354 DA      0.0000
   1118 OP1        7.6977     8.4839  1138.8569 O.co2    354 DA      0.0000
   1119 OP2        6.4169     6.4367  1139.3973 O.co2    354 DA      0.0000
   1120 O5'        5.0483     8.4110  1138.7506 O.3      354 DA      0.0000
   1121 C5'        4.1221     8.7891  1137.7216 C.3      354 DA      0.0000
   1122 C4'        2.7684     8.2855  1138.1959 C.3      354 DA      0.0000
   1123 O4'        2.7083     6.8781  1138.1056 O.3      354 DA      0.0000
   1124 C3'        2.3715     8.6562  1139.6250 C.3      354 DA      0.0000
   1125 O3'        1.0210     9.1604  1139.6773 O.3      354 DA      0.0000
   1126 C2'        2.5415     7.3212  1140.3604 C.3      354 DA      0.0000
   1127 C1'        2.0197     6.3829  1139.2828 C.3      354 DA      0.0000
   1128 N9         2.3574     4.9744  1139.5112 N.ar     354 DA      0.0000
   1129 C8         3.5714     4.3863  1139.7270 C.ar     354 DA      0.0000
   1130 N7         3.5106     3.0837  1139.8920 N.ar     354 DA      0.0000
   1131 C5         2.1618     2.7933  1139.7518 C.ar     354 DA      0.0000
   1132 C6         1.4581     1.5701  1139.7997 C.ar     354 DA      0.0000
   1133 N6         2.0247     0.3813  1140.0195 N.pl3    354 DA      0.0000
   1134 N1         0.1085     1.6666  1139.6099 N.ar     354 DA      0.0000
   1135 C2        -0.4865     2.8622  1139.3922 C.ar     354 DA      0.0000
   1136 N3         0.1108     4.0519  1139.3339 N.ar     354 DA      0.0000
   1137 C4         1.4384     3.9378  1139.5208 C.ar     354 DA      0.0000
   1138 H5'        4.3924     8.3223  1136.7744 H        354 DA      0.0000
   1139 H5''       4.1025     9.8736  1137.6138 H        354 DA      0.0000
   1140 H4'        2.0109     8.6926  1137.5261 H        354 DA      0.0000
   1141 H3'        3.0639     9.3962  1140.0264 H        354 DA      0.0000
   1142 H2'        3.5844     7.1206  1140.6059 H        354 DA      0.0000
   1143 H2''       1.9147     7.2821  1141.2513 H        354 DA      0.0000
   1144 H1'        0.9420     6.4999  1139.1683 H        354 DA      0.0000
   1145 H8         4.4973     4.9415  1139.7591 H        354 DA      0.0000
   1146 H2        -1.5572     2.8511  1139.2508 H        354 DA      0.0000
   1147 H61        3.0102     0.1829  1139.9221 H        354 DA      0.0000
   1148 H62        1.4768    -0.4497  1139.8480 H        354 DA      0.0000
   1149 P          0.5269    10.2334  1140.8187 P.3      355 DA      0.0000
   1150 OP1        0.0795    11.5102  1140.1517 O.co2    355 DA      0.0000
   1151 OP2        1.7430    10.3454  1141.6496 O.co2    355 DA      0.0000
   1152 O5'       -0.8248     9.5730  1141.3496 O.3      355 DA      0.0000
   1153 C5'       -1.9653     9.3388  1140.5252 C.3      355 DA      0.0000
   1154 C4'       -2.6798     8.1047  1141.0475 C.3      355 DA      0.0000
   1155 O4'       -1.8247     6.9969  1141.0757 O.3      355 DA      0.0000
   1156 C3'       -3.3341     8.2008  1142.4148 C.3      355 DA      0.0000
   1157 O3'       -4.7511     8.0470  1142.3370 O.3      355 DA      0.0000
   1158 C2'       -2.6072     7.1345  1143.2436 C.3      355 DA      0.0000
   1159 C1'       -2.0964     6.1650  1142.2498 C.3      355 DA      0.0000
   1160 N9        -0.8646     5.4008  1142.5178 N.ar     355 DA      0.0000
   1161 C8         0.4349     5.8316  1142.6330 C.ar     355 DA      0.0000
   1162 N7         1.3073     4.8665  1142.8023 N.ar     355 DA      0.0000
   1163 C5         0.5342     3.7105  1142.7653 C.ar     355 DA      0.0000
   1164 C6         0.8806     2.3345  1142.8858 C.ar     355 DA      0.0000
   1165 N6         2.1062     1.8626  1143.0774 N.pl3    355 DA      0.0000
   1166 N1        -0.1637     1.4494  1142.7876 N.ar     355 DA      0.0000
   1167 C2        -1.4389     1.8975  1142.5985 C.ar     355 DA      0.0000
   1168 N3        -1.8301     3.1621  1142.4906 N.ar     355 DA      0.0000
   1169 C4        -0.7937     4.0195  1142.5825 C.ar     355 DA      0.0000
   1170 H5'       -1.6490     9.1741  1139.4952 H        355 DA      0.0000
   1171 H5''      -2.6347    10.1978  1140.5712 H        355 DA      0.0000
   1172 H4'       -3.4714     7.8735  1140.3348 H        355 DA      0.0000
   1173 H3'       -3.1133     9.1807  1142.8380 H        355 DA      0.0000
   1174 H2'       -1.7846     7.5790  1143.8038 H        355 DA      0.0000
   1175 H2''      -3.3049     6.6452  1143.9232 H        355 DA      0.0000
   1176 H1'       -2.8945     5.4647  1142.0037 H        355 DA      0.0000
   1177 H8         0.7139     6.8740  1142.5882 H        355 DA      0.0000
   1178 H2        -2.2105     1.1450  1142.5293 H        355 DA      0.0000
   1179 H61        2.8634     2.4461  1143.4036 H        355 DA      0.0000
   1180 H62        2.2879     0.8868  1142.8906 H        355 DA      0.0000
   1181 P         -5.8364     8.7900  1143.2932 P.3      356 DT      0.0000
   1182 OP1       -7.0376     9.2857  1142.4959 O.co2    356 DT      0.0000
   1183 OP2       -5.1924     9.7942  1144.1138 O.co2    356 DT      0.0000
   1184 O5'       -6.4849     7.5162  1144.1069 O.3      356 DT      0.0000
   1185 C5'       -6.6650     6.3765  1143.1618 C.3      356 DT      0.0000
   1186 C4'       -6.2308     5.1666  1143.9496 C.3      356 DT      0.0000
   1187 O4'       -4.8363     5.0863  1144.1415 O.3      356 DT      0.0000
   1188 C3'       -6.8342     5.1471  1145.3661 C.3      356 DT      0.0000
   1189 O3'       -7.9770     4.3116  1145.3678 O.3      356 DT      0.0000
   1190 C2'       -5.6928     4.6752  1146.2634 C.3      356 DT      0.0000
   1191 C1'       -4.7057     4.1505  1145.2988 C.3      356 DT      0.0000
   1192 N1        -3.2925     4.1027  1145.6385 N.am     356 DT      0.0000
   1193 C2        -2.7216     2.8413  1145.7765 C.2      356 DT      0.0000
   1194 O2        -3.4239     1.8423  1145.6884 O.2      356 DT      0.0000
   1195 N3        -1.3856     2.7634  1146.0305 N.am     356 DT      0.0000
   1196 C4        -0.5919     3.8681  1146.1506 C.2      356 DT      0.0000
   1197 O4         0.6449     3.7125  1146.4058 O.2      356 DT      0.0000
   1198 C5        -1.1977     5.1562  1145.9790 C.2      356 DT      0.0000
   1199 C7        -0.3639     6.4043  1146.0665 C.3      356 DT      0.0000
   1200 C6        -2.5154     5.2274  1145.7233 C.2      356 DT      0.0000
   1201 H5'       -7.7086     6.2865  1142.8602 H        356 DT      0.0000
   1202 H5''      -6.0282     6.5066  1142.2868 H        356 DT      0.0000
   1203 H4'       -6.5599     4.2722  1143.4204 H        356 DT      0.0000
   1204 H3'       -7.1243     6.1586  1145.6505 H        356 DT      0.0000
   1205 H2'       -5.2774     5.5039  1146.8368 H        356 DT      0.0000
   1206 H2''      -6.0337     3.8828  1146.9298 H        356 DT      0.0000
   1207 H1'       -5.0221     3.1568  1144.9814 H        356 DT      0.0000
   1208 H3        -0.9647     1.8511  1146.1342 H        356 DT      0.0000
   1209 H6        -2.9728     6.1954  1145.5811 H        356 DT      0.0000
   1210 H71        0.6709     6.1364  1146.2796 H        356 DT      0.0000
   1211 H72       -0.4125     6.9405  1145.1188 H        356 DT      0.0000
   1212 H73       -0.7460     7.0413  1146.8643 H        356 DT      0.0000
   1213 P         -9.0493     4.1239  1146.4744 P.3      357 DT      0.0000
   1214 OP1      -10.3688     3.5867  1145.8624 O.co2    357 DT      0.0000
   1215 OP2       -9.2357     5.4564  1147.1044 O.co2    357 DT      0.0000
   1216 O5'       -8.5058     2.9000  1147.3568 O.3      357 DT      0.0000
   1217 C5'       -8.5656     1.6349  1146.6450 C.3      357 DT      0.0000
   1218 C4'       -7.6617     0.6633  1147.3211 C.3      357 DT      0.0000
   1219 O4'       -6.2910     1.0418  1147.2978 O.3      357 DT      0.0000
   1220 C3'       -8.0178     0.3807  1148.7878 C.3      357 DT      0.0000
   1221 O3'       -7.9359    -1.0071  1149.0518 O.3      357 DT      0.0000
   1222 C2'       -6.8766     1.1219  1149.5241 C.3      357 DT      0.0000
   1223 C1'       -5.7412     0.6860  1148.6206 C.3      357 DT      0.0000
   1224 N1        -4.5252     1.4200  1148.9183 N.am     357 DT      0.0000
   1225 C2        -3.3291     0.7230  1148.9731 C.2      357 DT      0.0000
   1226 O2        -3.3393    -0.4943  1148.7846 O.2      357 DT      0.0000
   1227 N3        -2.1854     1.4219  1149.2390 N.am     357 DT      0.0000
   1228 C4        -2.1887     2.7672  1149.4460 C.2      357 DT      0.0000
   1229 O4        -1.0888     3.3491  1149.6693 O.2      357 DT      0.0000
   1230 C5        -3.4245     3.4747  1149.3809 C.2      357 DT      0.0000
   1231 C7        -3.5094     4.9584  1149.5908 C.3      357 DT      0.0000
   1232 C6        -4.5381     2.7725  1149.1198 C.2      357 DT      0.0000
   1233 H5'       -9.5872     1.2551  1146.6574 H        357 DT      0.0000
   1234 H5''      -8.2417     1.7794  1145.6143 H        357 DT      0.0000
   1235 H4'       -7.7439    -0.2808  1146.7827 H        357 DT      0.0000
   1236 H3'       -8.9958     0.7840  1149.0502 H        357 DT      0.0000
   1237 H2'       -7.0158     2.2029  1149.5229 H        357 DT      0.0000
   1238 H2''      -6.7455     0.7407  1150.5368 H        357 DT      0.0000
   1239 H1'       -5.5749    -0.3886  1148.6962 H        357 DT      0.0000
   1240 H3        -1.3081     0.9235  1149.2834 H        357 DT      0.0000
   1241 H6        -5.4812     3.2961  1149.0667 H        357 DT      0.0000
   1242 H71       -2.5139     5.3553  1149.7898 H        357 DT      0.0000
   1243 H72       -3.9157     5.4290  1148.6956 H        357 DT      0.0000
   1244 H73       -4.1606     5.1687  1150.4392 H        357 DT      0.0000
   1245 P         -8.8793    -2.1040  1149.6598 P.3      358 DC      0.0000
   1246 OP1       -9.3791    -3.0579  1148.5918 O.co2    358 DC      0.0000
   1247 OP2       -9.9188    -1.3605  1150.3947 O.co2    358 DC      0.0000
   1248 O5'       -7.7213    -2.9019  1150.4858 O.3      358 DC      0.0000
   1249 C5'       -6.6932    -3.1728  1149.4635 C.3      358 DC      0.0000
   1250 C4'       -5.5466    -3.8488  1150.1600 C.3      358 DC      0.0000
   1251 O4'       -4.4826    -2.9827  1150.4069 O.3      358 DC      0.0000
   1252 C3'       -5.9101    -4.5728  1151.4515 C.3      358 DC      0.0000
   1253 O3'       -5.5344    -5.9415  1151.3718 O.3      358 DC      0.0000
   1254 C2'       -5.2255    -3.6936  1152.5003 C.3      358 DC      0.0000
   1255 C1'       -4.0564    -3.1183  1151.8038 C.3      358 DC      0.0000
   1256 N1        -3.6946    -1.7367  1152.1360 N.am     358 DC      0.0000
   1257 C2        -2.3447    -1.5060  1152.3918 C.2      358 DC      0.0000
   1258 O2        -1.5244    -2.4291  1152.3962 O.2      358 DC      0.0000
   1259 N3        -1.9643    -0.2155  1152.6656 N.2      358 DC      0.0000
   1260 C4        -2.8641     0.8095  1152.6557 C.2      358 DC      0.0000
   1261 N4        -2.3988     2.0226  1152.9325 N.pl3    358 DC      0.0000
   1262 C5        -4.2266     0.5630  1152.3777 C.2      358 DC      0.0000
   1263 C6        -4.5847    -0.7102  1152.1129 C.2      358 DC      0.0000
   1264 H5'       -7.0979    -3.8254  1148.6899 H        358 DC      0.0000
   1265 H5''      -6.3565    -2.2361  1149.0193 H        358 DC      0.0000
   1266 H4'       -5.1734    -4.6092  1149.4741 H        358 DC      0.0000
   1267 H3'       -6.9890    -4.5134  1151.5948 H        358 DC      0.0000
   1268 H2'       -5.8977    -2.9049  1152.8382 H        358 DC      0.0000
   1269 H2''      -4.9000    -4.2996  1153.3458 H        358 DC      0.0000
   1270 H1'       -3.1920    -3.7773  1151.8848 H        358 DC      0.0000
   1271 H5        -4.9531     1.3622  1152.3771 H        358 DC      0.0000
   1272 H6        -5.6165    -0.9216  1151.8738 H        358 DC      0.0000
   1273 H41       -1.4174     2.1538  1153.1317 H        358 DC      0.0000
   1274 H42       -3.0265     2.8138  1152.9438 H        358 DC      0.0000
   1275 P         -6.0690    -7.1420  1152.3239 P.3      359 DA      0.0000
   1276 OP1       -5.9403    -8.4279  1151.5301 O.co2    359 DA      0.0000
   1277 OP2       -7.4755    -6.8521  1152.6694 O.co2    359 DA      0.0000
   1278 O5'       -5.0570    -7.1002  1153.6209 O.3      359 DA      0.0000
   1279 C5'       -3.6271    -7.1391  1153.3256 C.3      359 DA      0.0000
   1280 C4'       -2.8309    -6.9940  1154.5809 C.3      359 DA      0.0000
   1281 O4'       -2.3130    -5.6824  1154.8231 O.3      359 DA      0.0000
   1282 C3'       -3.5885    -7.2896  1155.8862 C.3      359 DA      0.0000
   1283 O3'       -2.6341    -7.5571  1156.9161 O.3      359 DA      0.0000
   1284 C2'       -4.2599    -5.9184  1156.1008 C.3      359 DA      0.0000
   1285 C1'       -2.9944    -5.0739  1155.9175 C.3      359 DA      0.0000
   1286 N9        -3.3642    -3.6718  1155.8232 N.ar     359 DA      0.0000
   1287 C8        -4.5916    -3.0803  1155.7073 C.ar     359 DA      0.0000
   1288 N7        -4.5750    -1.7596  1155.6887 N.ar     359 DA      0.0000
   1289 C5        -3.2245    -1.4589  1155.7963 C.ar     359 DA      0.0000
   1290 C6        -2.5263    -0.2266  1155.8308 C.ar     359 DA      0.0000
   1291 N6        -3.0983     0.9610  1155.7455 N.pl3    359 DA      0.0000
   1292 N1        -1.1697    -0.3076  1155.9634 N.ar     359 DA      0.0000
   1293 C2        -0.5349    -1.5184  1156.0435 C.ar     359 DA      0.0000
   1294 N3        -1.1195    -2.7137  1156.0137 N.ar     359 DA      0.0000
   1295 C4        -2.4658    -2.6142  1155.8907 C.ar     359 DA      0.0000
   1296 H5'       -3.3838    -8.0914  1152.8545 H        359 DA      0.0000
   1297 H5''      -3.3774    -6.3257  1152.6444 H        359 DA      0.0000
   1298 H4'       -1.9866    -7.6808  1154.5220 H        359 DA      0.0000
   1299 H3'       -4.3144    -8.0948  1155.7725 H        359 DA      0.0000
   1300 H2'       -5.0199    -5.7022  1155.3500 H        359 DA      0.0000
   1301 H2''      -4.6591    -5.8239  1157.1106 H        359 DA      0.0000
   1302 H1'       -2.3771    -5.1982  1156.8071 H        359 DA      0.0000
   1303 H8        -5.5062    -3.6503  1155.6363 H        359 DA      0.0000
   1304 H2         0.5406    -1.5018  1156.1400 H        359 DA      0.0000
   1305 H61       -2.7889     1.9054  1155.9256 H        359 DA      0.0000
   1306 H62       -4.0568     0.9143  1155.4308 H        359 DA      0.0000
   1307 P         -1.9386    -8.9913  1157.0566 P.3      360 DC      0.0000
   1308 OP1       -2.0168    -9.8066  1155.8114 O.co2    360 DC      0.0000
   1309 OP2       -2.6975    -9.6013  1158.1994 O.co2    360 DC      0.0000
   1310 O5'       -0.4199    -8.6337  1157.3397 O.3      360 DC      0.0000
   1311 C5'        0.4956    -8.3025  1156.2520 C.3      360 DC      0.0000
   1312 C4'        1.4847    -7.3675  1156.9570 C.3      360 DC      0.0000
   1313 O4'        0.7921    -6.1811  1157.2689 O.3      360 DC      0.0000
   1314 C3'        2.0338    -7.9267  1158.2669 C.3      360 DC      0.0000
   1315 O3'        3.4772    -7.8866  1158.3348 O.3      360 DC      0.0000
   1316 C2'        1.3509    -7.0768  1159.3491 C.3      360 DC      0.0000
   1317 C1'        1.1769    -5.7777  1158.6729 C.3      360 DC      0.0000
   1318 N1         0.0845    -4.8746  1159.0257 N.am     360 DC      0.0000
   1319 C2         0.4051    -3.5186  1158.9988 C.2      360 DC      0.0000
   1320 O2         1.5413    -3.1115  1158.7919 O.2      360 DC      0.0000
   1321 N3        -0.5970    -2.6345  1159.2519 N.2      360 DC      0.0000
   1322 C4        -1.8726    -3.0276  1159.4853 C.2      360 DC      0.0000
   1323 N4        -2.7664    -2.0679  1159.7162 N.pl3    360 DC      0.0000
   1324 C5        -2.1900    -4.4138  1159.4919 C.2      360 DC      0.0000
   1325 C6        -1.1960    -5.2803  1159.2424 C.2      360 DC      0.0000
   1326 H5'        0.9943    -9.1921  1155.8672 H        360 DC      0.0000
   1327 H5''      -0.0285    -7.7780  1155.4530 H        360 DC      0.0000
   1328 H4'        2.3115    -7.1394  1156.2843 H        360 DC      0.0000
   1329 H3'        1.7055    -8.9607  1158.3727 H        360 DC      0.0000
   1330 H2'        0.3896    -7.5031  1159.6361 H        360 DC      0.0000
   1331 H2''       1.9987    -6.9721  1160.2193 H        360 DC      0.0000
   1332 H1'        2.1216    -5.2340  1158.6596 H        360 DC      0.0000
   1333 H5        -3.1946    -4.7567  1159.6904 H        360 DC      0.0000
   1334 H6        -1.4203    -6.3363  1159.2127 H        360 DC      0.0000
   1335 H41       -2.4814    -1.0990  1159.7052 H        360 DC      0.0000
   1336 H42       -3.7295    -2.3089  1159.9024 H        360 DC      0.0000
   1337 P         -2.1404     8.2137  1161.2943 P.3      360 DG      0.0000
   1338 OP1       -2.5792     9.6323  1161.4730 O.co2    360 DG      0.0000
   1339 OP2       -2.9186     7.4809  1160.2094 O.co2    360 DG      0.0000
   1340 O5'       -0.5081     8.1694  1161.0870 O.3      360 DG      0.0000
   1341 C5'        0.3381     7.6866  1162.1828 C.3      360 DG      0.0000
   1342 C4'        1.4693     6.8806  1161.5485 C.3      360 DG      0.0000
   1343 O4'        1.1538     5.5184  1161.4527 O.3      360 DG      0.0000
   1344 C3'        1.8548     7.3317  1160.1422 C.3      360 DG      0.0000
   1345 O3'        3.2761     7.3056  1159.8752 O.3      360 DG      0.0000
   1346 C2'        1.0932     6.3440  1159.2399 C.3      360 DG      0.0000
   1347 C1'        1.1937     5.0710  1160.0637 C.3      360 DG      0.0000
   1348 N9         0.0598     4.1716  1159.7904 N.ar     360 DG      0.0000
   1349 C8        -1.2646     4.5049  1159.6338 C.ar     360 DG      0.0000
   1350 N7        -2.0473     3.4818  1159.4153 N.ar     360 DG      0.0000
   1351 C5        -1.1823     2.3941  1159.4401 C.ar     360 DG      0.0000
   1352 C6        -1.4208     1.0026  1159.2837 C.2      360 DG      0.0000
   1353 O6        -2.5160     0.4571  1159.0869 O.2      360 DG      0.0000
   1354 N1        -0.2940     0.2228  1159.3706 N.am     360 DG      0.0000
   1355 C2         0.9393     0.7405  1159.5913 C.2      360 DG      0.0000
   1356 N2         1.9366    -0.1374  1159.6546 N.pl3    360 DG      0.0000
   1357 N3         1.2179     2.0403  1159.7490 N.2      360 DG      0.0000
   1358 C4         0.1119     2.8049  1159.6657 C.ar     360 DG      0.0000
   1359 H5'        0.7458     8.5296  1162.7406 H        360 DG      0.0000
   1360 H5''      -0.2442     7.0487  1162.8477 H        360 DG      0.0000
   1361 H4'        2.3486     6.9776  1162.1852 H        360 DG      0.0000
   1362 H3'        1.4758     8.3394  1159.9717 H        360 DG      0.0000
   1363 H2'        0.0565     6.6486  1159.0972 H        360 DG      0.0000
   1364 H2''       1.5982     6.2262  1158.2811 H        360 DG      0.0000
   1365 H1'        2.1359     4.5627  1159.8585 H        360 DG      0.0000
   1366 H8        -1.6258     5.5213  1159.6865 H        360 DG      0.0000
   1367 H1        -0.3878    -0.7773  1159.2658 H        360 DG      0.0000
   1368 H21        1.7496    -1.1233  1159.5395 H        360 DG      0.0000
   1369 H22        2.8808     0.1818  1159.8178 H        360 DG      0.0000
   1370 P          3.6906     7.0314  1158.3517 P.3      359 DT      0.0000
   1371 OP1        5.0068     7.6477  1157.9608 O.co2    359 DT      0.0000
   1372 OP2        2.5602     7.6891  1157.6512 O.co2    359 DT      0.0000
   1373 O5'        3.7698     5.4365  1158.2208 O.3      359 DT      0.0000
   1374 C5'        5.0684     4.8168  1158.4885 C.3      359 DT      0.0000
   1375 C4'        5.1391     3.5085  1157.7314 C.3      359 DT      0.0000
   1376 O4'        3.9021     2.8190  1157.7041 O.3      359 DT      0.0000
   1377 C3'        5.5472     3.6827  1156.2767 C.3      359 DT      0.0000
   1378 O3'        6.4186     2.6430  1155.7816 O.3      359 DT      0.0000
   1379 C2'        4.2185     3.6960  1155.5538 C.3      359 DT      0.0000
   1380 C1'        3.5023     2.6046  1156.3319 C.3      359 DT      0.0000
   1381 N1         2.0600     2.8533  1156.1806 N.am     359 DT      0.0000
   1382 C2         1.2302     1.7419  1156.2874 C.2      359 DT      0.0000
   1383 O2         1.7053     0.6273  1156.4772 O.2      359 DT      0.0000
   1384 N3        -0.1149     1.9534  1156.1672 N.am     359 DT      0.0000
   1385 C4        -0.6328     3.1949  1155.9497 C.2      359 DT      0.0000
   1386 O4        -1.9007     3.2932  1155.8521 O.2      359 DT      0.0000
   1387 C5         0.2420     4.3137  1155.8433 C.2      359 DT      0.0000
   1388 C7        -0.3185     5.6881  1155.6143 C.3      359 DT      0.0000
   1389 C6         1.5548     4.1012  1155.9651 C.2      359 DT      0.0000
   1390 H5'        5.8676     5.4786  1158.1547 H        359 DT      0.0000
   1391 H5''       5.1712     4.6280  1159.5571 H        359 DT      0.0000
   1392 H4'        5.8758     2.8703  1158.2194 H        359 DT      0.0000
   1393 H3'        6.0342     4.6500  1156.1527 H        359 DT      0.0000
   1394 H2'        3.7150     4.6584  1155.6454 H        359 DT      0.0000
   1395 H2''       4.3394     3.4155  1154.5074 H        359 DT      0.0000
   1396 H1'        3.7796     1.6105  1155.9813 H        359 DT      0.0000
   1397 H3        -0.7434     1.1663  1156.2419 H        359 DT      0.0000
   1398 H6         2.2330     4.9384  1155.8909 H        359 DT      0.0000
   1399 H71       -1.4048     5.6312  1155.5456 H        359 DT      0.0000
   1400 H72       -0.0407     6.3365  1156.4452 H        359 DT      0.0000
   1401 H73        0.0835     6.0944  1154.6862 H        359 DT      0.0000
   1402 P          7.6789     3.3915  1155.0032 P.3      358 DG      0.0000
   1403 OP1        8.8743     3.6013  1155.8744 O.co2    358 DG      0.0000
   1404 OP2        6.9780     4.6354  1154.5976 O.co2    358 DG      0.0000
   1405 O5'        8.0566     2.2762  1153.9224 O.3      358 DG      0.0000
   1406 C5'        8.8321     1.1263  1154.3459 C.3      358 DG      0.0000
   1407 C4'        8.0161    -0.0798  1153.8981 C.3      358 DG      0.0000
   1408 O4'        6.6471     0.1458  1154.1688 O.3      358 DG      0.0000
   1409 C3'        8.1410    -0.4085  1152.4104 C.3      358 DG      0.0000
   1410 O3'        8.5720    -1.7415  1152.2019 O.3      358 DG      0.0000
   1411 C2'        6.7795    -0.0636  1151.8337 C.3      358 DG      0.0000
   1412 C1'        5.8608    -0.2384  1153.0198 C.3      358 DG      0.0000
   1413 N9         4.6776     0.6172  1152.8963 N.ar     358 DG      0.0000
   1414 C8         4.6242     1.9730  1152.7374 C.ar     358 DG      0.0000
   1415 N7         3.4049     2.4476  1152.6593 N.ar     358 DG      0.0000
   1416 C5         2.5953     1.3238  1152.7968 C.ar     358 DG      0.0000
   1417 C6         1.1839     1.1687  1152.8063 C.2      358 DG      0.0000
   1418 O6         0.3408     2.0544  1152.7073 O.2      358 DG      0.0000
   1419 N1         0.7547    -0.1195  1152.9553 N.am     358 DG      0.0000
   1420 C2         1.6302    -1.1700  1153.0882 C.2      358 DG      0.0000
   1421 N2         1.0769    -2.3755  1153.2238 N.pl3    358 DG      0.0000
   1422 N3         2.9648    -1.0933  1153.0925 N.2      358 DG      0.0000
   1423 C4         3.3753     0.1890  1152.9418 C.ar     358 DG      0.0000
   1424 H5'        9.8113     1.1263  1153.8671 H        358 DG      0.0000
   1425 H5''       8.9427     1.1250  1155.4302 H        358 DG      0.0000
   1426 H4'        8.3419    -0.9479  1154.4711 H        358 DG      0.0000
   1427 H3'        8.8791     0.2630  1151.9718 H        358 DG      0.0000
   1428 H2'        6.7567     0.9627  1151.4673 H        358 DG      0.0000
   1429 H2''       6.5136    -0.7597  1151.0381 H        358 DG      0.0000
   1430 H1'        5.5588    -1.2821  1153.1069 H        358 DG      0.0000
   1431 H8         5.5047     2.5959  1152.6813 H        358 DG      0.0000
   1432 H1        -0.2379    -0.3056  1152.9681 H        358 DG      0.0000
   1433 H21        0.0715    -2.4726  1153.2248 H        358 DG      0.0000
   1434 H22        1.6631    -3.1916  1153.3256 H        358 DG      0.0000
   1435 P          8.0605    -2.9601  1151.3356 P.3      357 DA      0.0000
   1436 OP1        8.2259    -4.2697  1152.1169 O.co2    357 DA      0.0000
   1437 OP2        8.9106    -2.9651  1150.1429 O.co2    357 DA      0.0000
   1438 O5'        6.4543    -2.7515  1151.1608 O.3      357 DA      0.0000
   1439 C5'        5.7075    -3.2866  1152.3172 C.3      357 DA      0.0000
   1440 C4'        4.8360    -4.3992  1151.7894 C.3      357 DA      0.0000
   1441 O4'        3.5117    -3.9855  1151.5672 O.3      357 DA      0.0000
   1442 C3'        5.3203    -4.9505  1150.4489 C.3      357 DA      0.0000
   1443 O3'        5.2220    -6.3526  1150.3737 O.3      357 DA      0.0000
   1444 C2'        4.5190    -4.1322  1149.4524 C.3      357 DA      0.0000
   1445 C1'        3.2861    -3.6679  1150.1762 C.3      357 DA      0.0000
   1446 N9         3.0303    -2.2350  1149.9507 N.ar     357 DA      0.0000
   1447 C8         3.9353    -1.2124  1149.7643 C.ar     357 DA      0.0000
   1448 N7         3.3888    -0.0346  1149.5684 N.ar     357 DA      0.0000
   1449 C5         2.0274    -0.2974  1149.6553 C.ar     357 DA      0.0000
   1450 C6         0.9017     0.5526  1149.5497 C.ar     357 DA      0.0000
   1451 N6         0.9805     1.8544  1149.3372 N.pl3    357 DA      0.0000
   1452 N1        -0.3147    -0.0468  1149.6734 N.ar     357 DA      0.0000
   1453 C2        -0.4262    -1.3894  1149.8979 C.ar     357 DA      0.0000
   1454 N3         0.5900    -2.2418  1150.0138 N.ar     357 DA      0.0000
   1455 C4         1.7936    -1.6345  1149.8777 C.ar     357 DA      0.0000
   1456 H5'        6.3994    -3.6735  1153.0653 H        357 DA      0.0000
   1457 H5''       5.0873    -2.5038  1152.7539 H        357 DA      0.0000
   1458 H4'        4.8293    -5.2107  1152.5171 H        357 DA      0.0000
   1459 H3'        6.3705    -4.6815  1150.3358 H        357 DA      0.0000
   1460 H2'        4.2435    -4.7469  1148.5955 H        357 DA      0.0000
   1461 H2''       5.1024    -3.2729  1149.1218 H        357 DA      0.0000
   1462 H1'        2.4301    -4.2397  1149.8180 H        357 DA      0.0000
   1463 H8         5.0041    -1.3668  1149.7782 H        357 DA      0.0000
   1464 H2        -1.4234    -1.7939  1149.9892 H        357 DA      0.0000
   1465 H61        0.2531     2.4802  1149.6526 H        357 DA      0.0000
   1466 H62        1.7820     2.2302  1148.8510 H        357 DA      0.0000
   1467 P          4.8003    -7.3095  1149.1891 P.3      356 DA      0.0000
   1468 OP1        4.5961    -8.7625  1149.7091 O.co2    356 DA      0.0000
   1469 OP2        5.9692    -7.2872  1148.2555 O.co2    356 DA      0.0000
   1470 O5'        3.3830    -6.8399  1148.6865 O.3      356 DA      0.0000
   1471 C5'        2.1951    -7.5198  1149.1423 C.3      356 DA      0.0000
   1472 C4'        1.0201    -6.8745  1148.4404 C.3      356 DA      0.0000
   1473 O4'        1.1147    -5.4837  1148.3196 O.3      356 DA      0.0000
   1474 C3'        0.7780    -7.4178  1147.0328 C.3      356 DA      0.0000
   1475 O3'       -0.4761    -8.1251  1147.0014 O.3      356 DA      0.0000
   1476 C2'        0.9441    -6.1916  1146.1333 C.3      356 DA      0.0000
   1477 C1'        0.5637    -5.0535  1147.0311 C.3      356 DA      0.0000
   1478 N9         1.1661    -3.7587  1146.7315 N.ar     356 DA      0.0000
   1479 C8         2.4935    -3.4372  1146.5367 C.ar     356 DA      0.0000
   1480 N7         2.7043    -2.1563  1146.3313 N.ar     356 DA      0.0000
   1481 C5         1.4463    -1.5906  1146.4058 C.ar     356 DA      0.0000
   1482 C6         1.0027    -0.2558  1146.2723 C.ar     356 DA      0.0000
   1483 N6         1.8102     0.7720  1146.0291 N.pl3    356 DA      0.0000
   1484 N1        -0.3485    -0.0718  1146.4212 N.ar     356 DA      0.0000
   1485 C2        -1.1901    -1.0926  1146.6737 C.ar     356 DA      0.0000
   1486 N3        -0.8437    -2.3759  1146.8125 N.ar     356 DA      0.0000
   1487 C4         0.4881    -2.5541  1146.6653 C.ar     356 DA      0.0000
   1488 H5'        2.2483    -8.5781  1148.8872 H        356 DA      0.0000
   1489 H5''       2.0920    -7.4032  1150.2211 H        356 DA      0.0000
   1490 H4'        0.1295    -7.0903  1149.0305 H        356 DA      0.0000
   1491 H3'        1.5742    -8.1240  1146.7978 H        356 DA      0.0000
   1492 H2'        1.9751    -6.0933  1145.7934 H        356 DA      0.0000
   1493 H2''       0.2659    -6.2488  1145.2820 H        356 DA      0.0000
   1494 H1'       -0.5209    -4.9634  1147.0922 H        356 DA      0.0000
   1495 H8         3.2863    -4.1705  1146.5517 H        356 DA      0.0000
   1496 H2        -2.2385    -0.8528  1146.7728 H        356 DA      0.0000
   1497 H61        1.4619     1.6734  1146.3232 H        356 DA      0.0000
   1498 H62        2.7087     0.6595  1145.5819 H        356 DA      0.0000
   1499 P         -0.9652    -8.7843  1145.6164 P.3      355 DT      0.0000
   1500 OP1       -2.0913    -9.7700  1145.6746 O.co2    355 DT      0.0000
   1501 OP2        0.3318    -9.3226  1145.1038 O.co2    355 DT      0.0000
   1502 O5'       -1.5862    -7.4067  1144.9133 O.3      355 DT      0.0000
   1503 C5'       -2.3133    -6.6470  1145.9256 C.3      355 DT      0.0000
   1504 C4'       -3.2953    -5.7497  1145.2427 C.3      355 DT      0.0000
   1505 O4'       -2.8287    -4.4460  1145.0622 O.3      355 DT      0.0000
   1506 C3'       -3.7534    -6.2499  1143.8814 C.3      355 DT      0.0000
   1507 O3'       -5.1334    -5.9719  1143.6141 O.3      355 DT      0.0000
   1508 C2'       -2.7529    -5.5050  1142.9881 C.3      355 DT      0.0000
   1509 C1'       -2.7328    -4.1333  1143.6281 C.3      355 DT      0.0000
   1510 N1        -1.4436    -3.4544  1143.3981 N.am     355 DT      0.0000
   1511 C2        -1.4599    -2.0761  1143.2765 C.2      355 DT      0.0000
   1512 O2        -2.5179    -1.4459  1143.3133 O.2      355 DT      0.0000
   1513 N3        -0.2640    -1.4321  1143.1091 N.am     355 DT      0.0000
   1514 C4         0.9157    -2.1071  1143.0606 C.2      355 DT      0.0000
   1515 O4         1.9721    -1.4322  1142.8750 O.2      355 DT      0.0000
   1516 C5         0.9124    -3.5224  1143.2090 C.2      355 DT      0.0000
   1517 C7         2.2029    -4.3050  1143.1569 C.3      355 DT      0.0000
   1518 C6        -0.2631    -4.1358  1143.3819 C.2      355 DT      0.0000
   1519 H5'       -2.8425    -7.3324  1146.5877 H        355 DT      0.0000
   1520 H5''      -1.6121    -6.0470  1146.5056 H        355 DT      0.0000
   1521 H4'       -4.1779    -5.6919  1145.8797 H        355 DT      0.0000
   1522 H3'       -3.5772    -7.3231  1143.8094 H        355 DT      0.0000
   1523 H2'       -1.7685    -5.9721  1143.0186 H        355 DT      0.0000
   1524 H2''      -3.1201    -5.4468  1141.9635 H        355 DT      0.0000
   1525 H1'       -3.5721    -3.5231  1143.2941 H        355 DT      0.0000
   1526 H3        -0.2573    -0.4262  1143.0189 H        355 DT      0.0000
   1527 H6        -0.2777    -5.2077  1143.5133 H        355 DT      0.0000
   1528 H71        2.3481    -4.7007  1142.1517 H        355 DT      0.0000
   1529 H72        2.1565    -5.1294  1143.8684 H        355 DT      0.0000
   1530 H73        3.0356    -3.6501  1143.4134 H        355 DT      0.0000
   1531 P         -5.6631    -6.3889  1142.1242 P.3      354 DT      0.0000
   1532 OP1       -6.6869    -7.5161  1142.2722 O.co2    354 DT      0.0000
   1533 OP2       -4.4260    -6.9145  1141.4544 O.co2    354 DT      0.0000
   1534 O5'       -6.2749    -5.1228  1141.4721 O.3      354 DT      0.0000
   1535 C5'       -6.8912    -4.0770  1142.2235 C.3      354 DT      0.0000
   1536 C4'       -6.7129    -2.7948  1141.4756 C.3      354 DT      0.0000
   1537 O4'       -5.4323    -2.2267  1141.4186 O.3      354 DT      0.0000
   1538 C3'       -7.1957    -2.7522  1140.0095 C.3      354 DT      0.0000
   1539 O3'       -7.6638    -1.4042  1139.9057 O.3      354 DT      0.0000
   1540 C2'       -5.8821    -2.9664  1139.2457 C.3      354 DT      0.0000
   1541 C1'       -5.0503    -1.9657  1140.0215 C.3      354 DT      0.0000
   1542 N1        -3.5970    -2.1231  1139.9153 N.am     354 DT      0.0000
   1543 C2        -2.8620    -0.9299  1139.9147 C.2      354 DT      0.0000
   1544 O2        -3.4266     0.1651  1139.9577 O.2      354 DT      0.0000
   1545 N3        -1.5021    -1.0383  1139.8612 N.am     354 DT      0.0000
   1546 C4        -0.8593    -2.2390  1139.8015 C.2      354 DT      0.0000
   1547 O4         0.4070    -2.2340  1139.7391 O.2      354 DT      0.0000
   1548 C5        -1.6293    -3.4339  1139.8097 C.2      354 DT      0.0000
   1549 C7        -0.9281    -4.7749  1139.7483 C.3      354 DT      0.0000
   1550 C6        -2.9592    -3.3231  1139.8762 C.2      354 DT      0.0000
   1551 H5'       -7.9536    -4.2876  1142.3458 H        354 DT      0.0000
   1552 H5''      -6.4174    -3.9999  1143.2021 H        354 DT      0.0000
   1553 H4'       -7.3282    -2.0657  1142.0028 H        354 DT      0.0000
   1554 H3'       -7.9583    -3.4966  1139.7808 H        354 DT      0.0000
   1555 H2'       -5.9671    -2.7082  1138.1902 H        354 DT      0.0000
   1556 H2''      -5.5072    -3.9813  1139.3774 H        354 DT      0.0000
   1557 H1'       -5.3349    -0.9511  1139.7425 H        354 DT      0.0000
   1558 H3        -0.9490    -0.1933  1139.8661 H        354 DT      0.0000
   1559 H6        -3.5527    -4.2252  1139.8999 H        354 DT      0.0000
   1560 H71        0.1497    -4.6200  1139.6995 H        354 DT      0.0000
   1561 H72       -1.2576    -5.3166  1138.8617 H        354 DT      0.0000
   1562 H73       -1.1720    -5.3536  1140.6393 H        354 DT      0.0000
   1563 P         -8.5204    -0.8017  1138.7595 P.3      353 DC      0.0000
   1564 OP1       -9.6958    -0.0351  1139.3687 O.co2    353 DC      0.0000
   1565 OP2       -9.0333    -1.9701  1137.9777 O.co2    353 DC      0.0000
   1566 O5'       -7.4277     0.1542  1138.0201 O.3      353 DC      0.0000
   1567 C5'       -7.0914     1.3827  1138.7446 C.3      353 DC      0.0000
   1568 C4'       -6.8279     2.4301  1137.6941 C.3      353 DC      0.0000
   1569 O4'       -5.4520     2.6055  1137.4488 O.3      353 DC      0.0000
   1570 C3'       -7.4643     2.1599  1136.3297 C.3      353 DC      0.0000
   1571 O3'       -7.8738     3.3313  1135.6204 O.3      353 DC      0.0000
   1572 C2'       -6.3419     1.3691  1135.6435 C.3      353 DC      0.0000
   1573 C1'       -5.0841     2.0417  1136.1901 C.3      353 DC      0.0000
   1574 N1        -4.0286     1.0084  1136.3079 N.am     353 DC      0.0000
   1575 C2        -2.7069     1.4518  1136.3252 C.2      353 DC      0.0000
   1576 O2        -2.4353     2.6584  1136.2565 O.2      353 DC      0.0000
   1577 N3        -1.7283     0.5004  1136.4284 N.2      353 DC      0.0000
   1578 C4        -2.0148    -0.8258  1136.4992 C.2      353 DC      0.0000
   1579 N4        -1.0251    -1.7157  1136.6011 N.pl3    353 DC      0.0000
   1580 C5        -3.3723    -1.2516  1136.4740 C.2      353 DC      0.0000
   1581 C6        -4.3329    -0.3163  1136.3804 C.2      353 DC      0.0000
   1582 H5'       -7.9230     1.6861  1139.3806 H        353 DC      0.0000
   1583 H5''      -6.1974     1.2269  1139.3485 H        353 DC      0.0000
   1584 H4'       -7.2227     3.3767  1138.0629 H        353 DC      0.0000
   1585 H3'       -8.3268     1.5072  1136.4638 H        353 DC      0.0000
   1586 H2'       -6.3996     1.4633  1134.5592 H        353 DC      0.0000
   1587 H2''      -6.3754     0.3206  1135.9395 H        353 DC      0.0000
   1588 H1'       -4.7588     2.8295  1135.5108 H        353 DC      0.0000
   1589 H5        -3.6244    -2.3003  1136.5288 H        353 DC      0.0000
   1590 H6        -5.3686    -0.6224  1136.3623 H        353 DC      0.0000
   1591 H41       -0.0650    -1.4029  1136.6218 H        353 DC      0.0000
   1592 H42       -1.2364    -2.7017  1136.6575 H        353 DC      0.0000
   1593 P         -7.7909     3.5499  1133.9884 P.3      352 DA      0.0000
   1594 OP1       -8.8015     4.6070  1133.5989 O.co2    352 DA      0.0000
   1595 OP2       -8.0483     2.1995  1133.4183 O.co2    352 DA      0.0000
   1596 O5'       -6.3305     4.1730  1133.8229 O.3      352 DA      0.0000
   1597 C5'       -6.1141     5.5616  1134.2883 C.3      352 DA      0.0000
   1598 C4'       -4.9559     6.0055  1133.4110 C.3      352 DA      0.0000
   1599 O4'       -3.8065     5.1920  1133.6783 O.3      352 DA      0.0000
   1600 C3'       -5.2219     5.8189  1131.9066 C.3      352 DA      0.0000
   1601 O3'       -4.3128     6.5697  1131.1175 O.3      352 DA      0.0000
   1602 C2'       -4.8037     4.3489  1131.7191 C.3      352 DA      0.0000
   1603 C1'       -3.4543     4.4983  1132.4738 C.3      352 DA      0.0000
   1604 N9        -2.9641     3.1315  1132.6192 N.ar     352 DA      0.0000
   1605 C8        -3.7310     1.9902  1132.6921 C.ar     352 DA      0.0000
   1606 N7        -3.0228     0.8948  1132.8067 N.ar     352 DA      0.0000
   1607 C5        -1.6951     1.3586  1132.8003 C.ar     352 DA      0.0000
   1608 C6        -0.4623     0.6570  1132.9003 C.ar     352 DA      0.0000
   1609 N6        -0.3705    -0.6704  1133.0231 N.pl3    352 DA      0.0000
   1610 N1         0.6428     1.4529  1132.8651 N.ar     352 DA      0.0000
   1611 C2         0.5501     2.8001  1132.7462 C.ar     352 DA      0.0000
   1612 N3        -0.5707     3.5217  1132.6548 N.ar     352 DA      0.0000
   1613 C4        -1.6540     2.7259  1132.6823 C.ar     352 DA      0.0000
   1614 H5'       -6.9973     6.1783  1134.1215 H        352 DA      0.0000
   1615 H5''      -5.8278     5.5751  1135.3399 H        352 DA      0.0000
   1616 H4'       -4.7211     7.0502  1133.6150 H        352 DA      0.0000
   1617 H3'       -6.2625     5.9988  1131.6370 H        352 DA      0.0000
   1618 H2'       -5.4852     3.6478  1132.2008 H        352 DA      0.0000
   1619 H2''      -4.6518     4.1046  1130.6678 H        352 DA      0.0000
   1620 H1'       -2.7545     5.0916  1131.8854 H        352 DA      0.0000
   1621 H8        -4.8104     1.9978  1132.6580 H        352 DA      0.0000
   1622 H2         1.4805     3.3479  1132.7230 H        352 DA      0.0000
   1623 H61       -1.2079    -1.2344  1133.0479 H        352 DA      0.0000
   1624 H62        0.5364    -1.1097  1133.0912 H        352 DA      0.0000
   1625 P         -4.8385     7.5411  1129.9766 P.3      351 DC      0.0000
   1626 OP1       -5.1725     8.8017  1130.7569 O.co2    351 DC      0.0000
   1627 OP2       -5.9892     6.9915  1129.2510 O.co2    351 DC      0.0000
   1628 O5'       -3.5164     7.6053  1129.0008 O.3      351 DC      0.0000
   1629 C5'       -2.2452     7.9562  1129.6698 C.3      351 DC      0.0000
   1630 C4'       -1.1335     7.1707  1129.0258 C.3      351 DC      0.0000
   1631 O4'       -0.8661     5.9274  1129.6629 O.3      351 DC      0.0000
   1632 C3'       -1.4092     6.8446  1127.5479 C.3      351 DC      0.0000
   1633 O3'       -0.2417     6.8103  1126.7366 O.3      351 DC      0.0000
   1634 C2'       -1.9590     5.3900  1127.7136 C.3      351 DC      0.0000
   1635 C1'       -0.7430     4.9493  1128.6092 C.3      351 DC      0.0000
   1636 N1        -0.8861     3.5367  1128.8471 N.am     351 DC      0.0000
   1637 C2         0.2452     2.8025  1129.1642 C.2      351 DC      0.0000
   1638 O2         1.4153     3.1758  1129.3047 O.2      351 DC      0.0000
   1639 N3         0.1022     1.4572  1129.3624 N.2      351 DC      0.0000
   1640 C4        -1.1091     0.8326  1129.2464 C.2      351 DC      0.0000
   1641 N4        -1.2027    -0.4888  1129.4625 N.pl3    351 DC      0.0000
   1642 C5        -2.2609     1.5991  1128.9168 C.2      351 DC      0.0000
   1643 C6        -2.0955     2.9131  1128.7251 C.2      351 DC      0.0000
   1644 H5'       -2.0535     9.0235  1129.5583 H        351 DC      0.0000
   1645 H5''      -2.3065     7.7037  1130.7284 H        351 DC      0.0000
   1646 H4'       -0.2264     7.7733  1129.0725 H        351 DC      0.0000
   1647 H3'       -2.1646     7.5094  1127.1289 H        351 DC      0.0000
   1648 H2'       -2.9174     5.3448  1128.2307 H        351 DC      0.0000
   1649 H2''      -1.9821     4.8529  1126.7653 H        351 DC      0.0000
   1650 H1'        0.1841     5.1270  1128.0642 H        351 DC      0.0000
   1651 H5        -3.2330     1.1377  1128.8247 H        351 DC      0.0000
   1652 H6        -2.9577     3.5078  1128.4618 H        351 DC      0.0000
   1653 H41       -0.3786    -1.0209  1129.7030 H        351 DC      0.0000
   1654 H42       -2.0973    -0.9512  1129.3846 H        351 DC      0.0000
   1655 P          5.7977    -8.1712  1163.3358 P.3      361 DG      0.0000
   1656 OP1        5.9776    -9.6440  1163.3343 O.co2    361 DG      0.0000
   1657 OP2        4.7277    -7.8566  1164.3915 O.co2    361 DG      0.0000
   1658 O5'        7.1085    -7.2872  1163.5142 O.3      361 DG      0.0000
   1659 C5'        7.8652    -6.5725  1162.5142 C.3      361 DG      0.0000
   1660 C4'        8.0896    -5.1602  1163.0130 C.3      361 DG      0.0000
   1661 O4'        7.0686    -4.2808  1162.5939 O.3      361 DG      0.0000
   1662 C3'        8.2532    -4.9532  1164.5052 C.3      361 DG      0.0000
   1663 O3'        9.4822    -4.2436  1164.8172 O.3      361 DG      0.0000
   1664 C2'        7.0037    -4.2038  1164.9271 C.3      361 DG      0.0000
   1665 C1'        6.5852    -3.4779  1163.6714 C.3      361 DG      0.0000
   1666 N9         5.1195    -3.3223  1163.6424 N.ar     361 DG      0.0000
   1667 C8         4.1385    -4.2581  1163.8713 C.ar     361 DG      0.0000
   1668 N7         2.9155    -3.7863  1163.7816 N.ar     361 DG      0.0000
   1669 C5         3.1011    -2.4432  1163.4645 C.ar     361 DG      0.0000
   1670 C6         2.1800    -1.3907  1163.2386 C.2      361 DG      0.0000
   1671 O6         0.9497    -1.4368  1163.2599 O.2      361 DG      0.0000
   1672 N1         2.7418    -0.1756  1162.9571 N.am     361 DG      0.0000
   1673 C2         4.0210     0.0139  1162.8965 C.2      361 DG      0.0000
   1674 N2         4.2785     1.2283  1162.5997 N.pl3    361 DG      0.0000
   1675 N3         5.0062    -0.9565  1163.1052 N.2      361 DG      0.0000
   1676 C4         4.4480    -2.1447  1163.3778 C.ar     361 DG      0.0000
   1677 H5'        8.8247    -7.0647  1162.3555 H        361 DG      0.0000
   1678 H5''       7.3061    -6.5473  1161.5788 H        361 DG      0.0000
   1679 H4'        9.0112    -4.8098  1162.5483 H        361 DG      0.0000
   1680 H3'        8.2687    -5.9248  1164.9992 H        361 DG      0.0000
   1681 H2'        6.2271    -4.8952  1165.2541 H        361 DG      0.0000
   1682 H2''       7.2364    -3.4915  1165.7186 H        361 DG      0.0000
   1683 H1'        7.0590    -2.4968  1163.6395 H        361 DG      0.0000
   1684 H8         4.3543    -5.2904  1164.1043 H        361 DG      0.0000
   1685 H1         2.1301     0.6103  1162.7887 H        361 DG      0.0000
   1686 H21        3.5238     1.8838  1162.4553 H        361 DG      0.0000
   1687 H22        5.2369     1.5338  1162.5092 H        361 DG      0.0000
   1688 P          9.7798    -3.6408  1166.2457 P.3      362 DT      0.0000
   1689 OP1       11.1882    -3.7991  1166.7574 O.co2    362 DT      0.0000
   1690 OP2        8.9271    -4.5348  1167.1644 O.co2    362 DT      0.0000
   1691 O5'        9.2152    -2.1975  1166.2743 O.3      362 DT      0.0000
   1692 C5'       10.0493    -1.0151  1166.1303 C.3      362 DT      0.0000
   1693 C4'        9.0787     0.1460  1166.1878 C.3      362 DT      0.0000
   1694 O4'        7.7538    -0.2527  1165.9127 O.3      362 DT      0.0000
   1695 C3'        8.9914     0.8825  1167.5006 C.3      362 DT      0.0000
   1696 O3'        9.4705     2.2222  1167.3123 O.3      362 DT      0.0000
   1697 C2'        7.5142     0.8640  1167.8928 C.3      362 DT      0.0000
   1698 C1'        6.8670     0.7189  1166.5400 C.3      362 DT      0.0000
   1699 N1         5.5432     0.1034  1166.6367 N.am     362 DT      0.0000
   1700 C2         4.4565     0.9113  1166.4387 C.2      362 DT      0.0000
   1701 O2         4.5617     2.1123  1166.2006 O.2      362 DT      0.0000
   1702 N3         3.2216     0.3262  1166.5198 N.am     362 DT      0.0000
   1703 C4         3.0474    -0.9902  1166.7757 C.2      362 DT      0.0000
   1704 O4         1.8525    -1.3838  1166.8210 O.2      362 DT      0.0000
   1705 C5         4.1966    -1.8207  1166.9754 C.2      362 DT      0.0000
   1706 C7         4.0476    -3.2808  1167.2553 C.3      362 DT      0.0000
   1707 C6         5.4005    -1.2398  1166.8939 C.2      362 DT      0.0000
   1708 H5'       10.7722    -0.9529  1166.9438 H        362 DT      0.0000
   1709 H5''      10.5631    -1.0304  1165.1691 H        362 DT      0.0000
   1710 H4'        9.3748     0.8642  1165.4233 H        362 DT      0.0000
   1711 H3'        9.5875     0.3732  1168.2577 H        362 DT      0.0000
   1712 H2'        7.2817     0.0195  1168.5416 H        362 DT      0.0000
   1713 H2''       7.2256     1.8046  1168.3620 H        362 DT      0.0000
   1714 H1'        6.8414     1.6623  1165.9947 H        362 DT      0.0000
   1715 H3         2.4042     0.9033  1166.3823 H        362 DT      0.0000
   1716 H6         6.2848    -1.8438  1167.0343 H        362 DT      0.0000
   1717 H71        4.2615    -3.8485  1166.3498 H        362 DT      0.0000
   1718 H72        3.0276    -3.4860  1167.5801 H        362 DT      0.0000
   1719 H73        4.7448    -3.5732  1168.0406 H        362 DT      0.0000
   1720 P         10.3003     2.7872  1168.5923 P.3      363 DG      0.0000
   1721 OP1       11.3664     3.6074  1167.8772 O.co2    363 DG      0.0000
   1722 OP2       10.8260     1.6628  1169.3458 O.co2    363 DG      0.0000
   1723 O5'        9.0746     3.6763  1169.2018 O.3      363 DG      0.0000
   1724 C5'        8.4366     4.4423  1168.1112 C.3      363 DG      0.0000
   1725 C4'        7.1337     4.9745  1168.6313 C.3      363 DG      0.0000
   1726 O4'        6.0070     4.1589  1168.4507 O.3      363 DG      0.0000
   1727 C3'        7.1952     5.3202  1170.1393 C.3      363 DG      0.0000
   1728 O3'        6.7698     6.6953  1170.2982 O.3      363 DG      0.0000
   1729 C2'        6.3255     4.2669  1170.7919 C.3      363 DG      0.0000
   1730 C1'        5.2822     4.0119  1169.7103 C.3      363 DG      0.0000
   1731 N9         4.6466     2.7005  1169.8798 N.ar     363 DG      0.0000
   1732 C8         5.2237     1.5071  1170.2161 C.ar     363 DG      0.0000
   1733 N7         4.3854     0.4977  1170.3018 N.ar     363 DG      0.0000
   1734 C5         3.1631     1.0787  1169.9718 C.ar     363 DG      0.0000
   1735 C6         1.8588     0.5143  1169.8774 C.2      363 DG      0.0000
   1736 O6         1.5174    -0.6622  1170.0698 O.2      363 DG      0.0000
   1737 N1         0.8728     1.4139  1169.5424 N.am     363 DG      0.0000
   1738 C2         1.1434     2.7294  1169.3186 C.2      363 DG      0.0000
   1739 N2         0.0622     3.4572  1169.0098 N.pl3    363 DG      0.0000
   1740 N3         2.3427     3.3025  1169.3897 N.2      363 DG      0.0000
   1741 C4         3.3074     2.4255  1169.7162 C.ar     363 DG      0.0000
   1742 H5'        9.0816     5.2680  1167.8107 H        363 DG      0.0000
   1743 H5''       8.2538     3.7880  1167.2588 H        363 DG      0.0000
   1744 H4'        6.9381     5.9063  1168.1007 H        363 DG      0.0000
   1745 H3'        8.2204     5.2145  1170.4941 H        363 DG      0.0000
   1746 H2'        6.8948     3.3645  1171.0148 H        363 DG      0.0000
   1747 H2''       5.8567     4.6594  1171.6943 H        363 DG      0.0000
   1748 H1'        4.5165     4.7855  1169.7693 H        363 DG      0.0000
   1749 H8         6.2833     1.4020  1170.3967 H        363 DG      0.0000
   1750 H1        -0.0799     1.0887  1169.4601 H        363 DG      0.0000
   1751 H21       -0.8455     3.0170  1168.9596 H        363 DG      0.0000
   1752 H22        0.1546     4.4463  1168.8271 H        363 DG      0.0000
   1753 P          6.8194     7.4120  1171.6866 P.3      364 DA      0.0000
   1754 OP1        8.0937     8.1070  1172.0419 O.co2    364 DA      0.0000
   1755 OP2        6.7166     6.1232  1172.5823 O.co2    364 DA      0.0000
   1756 O5'        5.4438     8.1606  1171.9357 O.3      364 DA      0.0000
   1757 C5'        4.5367     8.5824  1170.9066 C.3      364 DA      0.0000
   1758 C4'        3.1606     8.1440  1171.3810 C.3      364 DA      0.0000
   1759 O4'        3.0333     6.7411  1171.2906 O.3      364 DA      0.0000
   1760 C3'        2.7818     8.5332  1172.8100 C.3      364 DA      0.0000
   1761 O3'        1.4569     9.1013  1172.8623 O.3      364 DA      0.0000
   1762 C2'        2.8879     7.1916  1173.5455 C.3      364 DA      0.0000
   1763 C1'        2.3219     6.2793  1172.4679 C.3      364 DA      0.0000
   1764 N9         2.5921     4.8562  1172.6963 N.ar     364 DA      0.0000
   1765 C8         3.7766     4.2109  1172.9120 C.ar     364 DA      0.0000
   1766 N7         3.6538     2.9127  1173.0770 N.ar     364 DA      0.0000
   1767 C5         2.2926     2.6870  1172.9368 C.ar     364 DA      0.0000
   1768 C6         1.5313     1.4987  1172.9848 C.ar     364 DA      0.0000
   1769 N6         2.0405     0.2843  1173.2045 N.pl3    364 DA      0.0000
   1770 N1         0.1879     1.6595  1172.7950 N.ar     364 DA      0.0000
   1771 C2        -0.3494     2.8822  1172.5772 C.ar     364 DA      0.0000
   1772 N3         0.3040     4.0420  1172.5190 N.ar     364 DA      0.0000
   1773 C4         1.6246     3.8647  1172.7058 C.ar     364 DA      0.0000
   1774 H5'        4.7845     8.1033  1169.9595 H        364 DA      0.0000
   1775 H5''       4.5689     9.6666  1170.7989 H        364 DA      0.0000
   1776 H4'        2.4233     8.5867  1170.7112 H        364 DA      0.0000
   1777 H3'        3.5087     9.2393  1173.2114 H        364 DA      0.0000
   1778 H2'        3.9200     6.9415  1173.7909 H        364 DA      0.0000
   1779 H2''       2.2599     7.1824  1174.4364 H        364 DA      0.0000
   1780 H1'        1.2511     6.4476  1172.3533 H        364 DA      0.0000
   1781 H8         4.7279     4.7213  1172.9441 H        364 DA      0.0000
   1782 H2        -1.4194     2.9221  1172.4359 H        364 DA      0.0000
   1783 H61        3.0155     0.0391  1173.1071 H        364 DA      0.0000
   1784 H62        1.4537    -0.5196  1173.0330 H        364 DA      0.0000
   1785 P          1.0146    10.1966  1174.0037 P.3      365 DA      0.0000
   1786 OP1        0.6286    11.4933  1173.3367 O.co2    365 DA      0.0000
   1787 OP2        2.2346    10.2504  1174.8347 O.co2    365 DA      0.0000
   1788 O5'       -0.3671     9.6014  1174.5346 O.3      365 DA      0.0000
   1789 C5'       -1.5175     9.4219  1173.7102 C.3      365 DA      0.0000
   1790 C4'       -2.2900     8.2233  1174.2326 C.3      365 DA      0.0000
   1791 O4'       -1.4888     7.0760  1174.2607 O.3      365 DA      0.0000
   1792 C3'       -2.9391     8.3505  1175.5999 C.3      365 DA      0.0000
   1793 O3'       -4.3618     8.2645  1175.5220 O.3      365 DA      0.0000
   1794 C2'       -2.2638     7.2508  1176.4286 C.3      365 DA      0.0000
   1795 C1'       -1.7999     6.2580  1175.4348 C.3      365 DA      0.0000
   1796 N9        -0.6059     5.4359  1175.7029 N.ar     365 DA      0.0000
   1797 C8         0.7126     5.8042  1175.8180 C.ar     365 DA      0.0000
   1798 N7         1.5380     4.7986  1175.9873 N.ar     365 DA      0.0000
   1799 C5         0.7107     3.6808  1175.9503 C.ar     365 DA      0.0000
   1800 C6         0.9910     2.2898  1176.0708 C.ar     365 DA      0.0000
   1801 N6         2.1927     1.7600  1176.2624 N.pl3    365 DA      0.0000
   1802 N1        -0.0944     1.4556  1175.9726 N.ar     365 DA      0.0000
   1803 C2        -1.3467     1.9640  1175.7835 C.ar     365 DA      0.0000
   1804 N3        -1.6771     3.2458  1175.6757 N.ar     365 DA      0.0000
   1805 C4        -0.6011     4.0528  1175.7675 C.ar     365 DA      0.0000
   1806 H5'       -1.2095     9.2423  1172.6802 H        365 DA      0.0000
   1807 H5''      -2.1451    10.3119  1173.7562 H        365 DA      0.0000
   1808 H4'       -3.0918     8.0302  1173.5198 H        365 DA      0.0000
   1809 H3'       -2.6717     9.3187  1176.0231 H        365 DA      0.0000
   1810 H2'       -1.4210     7.6555  1176.9889 H        365 DA      0.0000
   1811 H2''      -2.9841     6.7953  1177.1082 H        365 DA      0.0000
   1812 H1'       -2.6305     5.5965  1175.1887 H        365 DA      0.0000
   1813 H8         1.0411     6.8321  1175.7732 H        365 DA      0.0000
   1814 H2        -2.1534     1.2492  1175.7144 H        365 DA      0.0000
   1815 H61        2.9769     2.3067  1176.5886 H        365 DA      0.0000
   1816 H62        2.3276     0.7766  1176.0756 H        365 DA      0.0000
   1817 P         -5.4104     9.0585  1176.4783 P.3      366 DT      0.0000
   1818 OP1       -6.5865     9.6109  1175.6809 O.co2    366 DT      0.0000
   1819 OP2       -4.7192    10.0307  1177.2989 O.co2    366 DT      0.0000
   1820 O5'       -6.1189     7.8171  1177.2920 O.3      366 DT      0.0000
   1821 C5'       -6.3532     6.6872  1176.3469 C.3      366 DT      0.0000
   1822 C4'       -5.9772     5.4580  1177.1346 C.3      366 DT      0.0000
   1823 O4'       -4.5881     5.3112  1177.3266 O.3      366 DT      0.0000
   1824 C3'       -6.5809     5.4673  1178.5512 C.3      366 DT      0.0000
   1825 O3'       -7.7622     4.6872  1178.5528 O.3      366 DT      0.0000
   1826 C2'       -5.4633     4.9415  1179.4484 C.3      366 DT      0.0000
   1827 C1'       -4.5023     4.3702  1178.4838 C.3      366 DT      0.0000
   1828 N1        -3.0930     4.2551  1178.8236 N.am     366 DT      0.0000
   1829 C2        -2.5830     2.9679  1178.9615 C.2      366 DT      0.0000
   1830 O2        -3.3321     2.0036  1178.8735 O.2      366 DT      0.0000
   1831 N3        -1.2521     2.8263  1179.2155 N.am     366 DT      0.0000
   1832 C4        -0.4066     3.8919  1179.3356 C.2      366 DT      0.0000
   1833 O4         0.8213     3.6775  1179.5908 O.2      366 DT      0.0000
   1834 C5        -0.9504     5.2075  1179.1641 C.2      366 DT      0.0000
   1835 C7        -0.0580     6.4144  1179.2516 C.3      366 DT      0.0000
   1836 C6        -2.2632     5.3414  1178.9083 C.2      366 DT      0.0000
   1837 H5'       -7.3999     6.6471  1176.0452 H        366 DT      0.0000
   1838 H5''      -5.7109     6.7868  1175.4719 H        366 DT      0.0000
   1839 H4'       -6.3486     4.5803  1176.6055 H        366 DT      0.0000
   1840 H3'       -6.8224     6.4915  1178.8355 H        366 DT      0.0000
   1841 H2'       -5.0088     5.7494  1180.0218 H        366 DT      0.0000
   1842 H2''      -5.8416     4.1663  1180.1148 H        366 DT      0.0000
   1843 H1'       -4.8657     3.3928  1178.1665 H        366 DT      0.0000
   1844 H3        -0.8753     1.8950  1179.3192 H        366 DT      0.0000
   1845 H6        -2.6738     6.3302  1178.7662 H        366 DT      0.0000
   1846 H71        0.9629     6.0974  1179.4646 H        366 DT      0.0000
   1847 H72       -0.0808     6.9523  1178.3038 H        366 DT      0.0000
   1848 H73       -0.4092     7.0689  1180.0494 H        366 DT      0.0000
   1849 P         -8.8422     4.5510  1179.6595 P.3      367 DT      0.0000
   1850 OP1      -10.1859     4.0773  1179.0474 O.co2    367 DT      0.0000
   1851 OP2       -8.9649     5.8908  1180.2894 O.co2    367 DT      0.0000
   1852 O5'       -8.3577     3.3025  1180.5418 O.3      367 DT      0.0000
   1853 C5'       -8.4778     2.0417  1179.8300 C.3      367 DT      0.0000
   1854 C4'       -7.6214     1.0281  1180.5062 C.3      367 DT      0.0000
   1855 O4'       -6.2342     1.3407  1180.4829 O.3      367 DT      0.0000
   1856 C3'       -7.9905     0.7628  1181.9728 C.3      367 DT      0.0000
   1857 O3'       -7.9749    -0.6273  1182.2369 O.3      367 DT      0.0000
   1858 C2'       -6.8152     1.4487  1182.7092 C.3      367 DT      0.0000
   1859 C1'       -5.7019     0.9591  1181.8056 C.3      367 DT      0.0000
   1860 N1        -4.4523     1.6343  1182.1033 N.am     367 DT      0.0000
   1861 C2        -3.2908     0.8810  1182.1581 C.2      367 DT      0.0000
   1862 O2        -3.3591    -0.3344  1181.9697 O.2      367 DT      0.0000
   1863 N3        -2.1151     1.5246  1182.4240 N.am     367 DT      0.0000
   1864 C4        -2.0542     2.8685  1182.6310 C.2      367 DT      0.0000
   1865 O4        -0.9278     3.3973  1182.8543 O.2      367 DT      0.0000
   1866 C5        -3.2548     3.6341  1182.5660 C.2      367 DT      0.0000
   1867 C7        -3.2688     5.1202  1182.7759 C.3      367 DT      0.0000
   1868 C6        -4.4007     2.9859  1182.3048 C.2      367 DT      0.0000
   1869 H5'       -9.5164     1.7111  1179.8425 H        367 DT      0.0000
   1870 H5''      -8.1474     2.1706  1178.7993 H        367 DT      0.0000
   1871 H4'       -7.7485     0.0890  1179.9677 H        367 DT      0.0000
   1872 H3'       -8.9482     1.2123  1182.2353 H        367 DT      0.0000
   1873 H2'       -6.9027     2.5352  1182.7079 H        367 DT      0.0000
   1874 H2''      -6.7025     1.0617  1183.7219 H        367 DT      0.0000
   1875 H1'       -5.5871    -0.1222  1181.8812 H        367 DT      0.0000
   1876 H3        -1.2626     0.9848  1182.4684 H        367 DT      0.0000
   1877 H6        -5.3177     3.5539  1182.2518 H        367 DT      0.0000
   1878 H71       -2.2555     5.4692  1182.9748 H        367 DT      0.0000
   1879 H72       -3.6522     5.6097  1181.8806 H        367 DT      0.0000
   1880 H73       -3.9092     5.3613  1183.6243 H        367 DT      0.0000
   1881 P          7.9101    -3.3413  1184.5206 P.3      367 DA      0.0000
   1882 OP1        8.0129    -4.6573  1185.3020 O.co2    367 DA      0.0000
   1883 OP2        8.7590    -3.3869  1183.3279 O.co2    367 DA      0.0000
   1884 O5'        6.3156    -3.0563  1184.3458 O.3      367 DA      0.0000
   1885 C5'        5.5442    -3.5551  1185.5023 C.3      367 DA      0.0000
   1886 C4'        4.6206    -4.6249  1184.9745 C.3      367 DA      0.0000
   1887 O4'        3.3176    -4.1485  1184.7522 O.3      367 DA      0.0000
   1888 C3'        5.0780    -5.1987  1183.6340 C.3      367 DA      0.0000
   1889 O3'        4.9130    -6.5945  1183.5588 O.3      367 DA      0.0000
   1890 C2'        4.3167    -4.3431  1182.6374 C.3      367 DA      0.0000
   1891 C1'        3.1073    -3.8205  1183.3612 C.3      367 DA      0.0000
   1892 N9         2.9202    -2.3770  1183.1357 N.ar     367 DA      0.0000
   1893 C8         3.8730    -1.3988  1182.9494 C.ar     367 DA      0.0000
   1894 N7         3.3833    -0.1962  1182.7535 N.ar     367 DA      0.0000
   1895 C5         2.0109    -0.3938  1182.8403 C.ar     367 DA      0.0000
   1896 C6         0.9270     0.5089  1182.7347 C.ar     367 DA      0.0000
   1897 N6         1.0678     1.8055  1182.5222 N.pl3    367 DA      0.0000
   1898 N1        -0.3166    -0.0317  1182.8584 N.ar     367 DA      0.0000
   1899 C2        -0.4920    -1.3675  1183.0829 C.ar     367 DA      0.0000
   1900 N3         0.4824    -2.2674  1183.1988 N.ar     367 DA      0.0000
   1901 C4         1.7136    -1.7182  1183.0627 C.ar     367 DA      0.0000
   1902 H5'        6.2169    -3.9746  1186.2503 H        367 DA      0.0000
   1903 H5''       4.9620    -2.7436  1185.9389 H        367 DA      0.0000
   1904 H4'        4.5752    -5.4352  1185.7021 H        367 DA      0.0000
   1905 H3'        6.1399    -4.9801  1183.5209 H        367 DA      0.0000
   1906 H2'        4.0122    -4.9440  1181.7805 H        367 DA      0.0000
   1907 H2''       4.9404    -3.5126  1182.3069 H        367 DA      0.0000
   1908 H1'        2.2251    -4.3509  1183.0030 H        367 DA      0.0000
   1909 H8         4.9332    -1.6040  1182.9633 H        367 DA      0.0000
   1910 H2        -1.5074    -1.7240  1183.1742 H        367 DA      0.0000
   1911 H61        0.3711     2.4653  1182.8376 H        367 DA      0.0000
   1912 H62        1.8864     2.1426  1182.0360 H        367 DA      0.0000
   1913 P          4.4461    -7.5302  1182.3742 P.3      366 DA      0.0000
   1914 OP1        4.1728    -8.9718  1182.8941 O.co2    366 DA      0.0000
   1915 OP2        5.6147    -7.5637  1181.4405 O.co2    366 DA      0.0000
   1916 O5'        3.0528    -6.9935  1181.8715 O.3      366 DA      0.0000
   1917 C5'        1.8338    -7.6159  1182.3273 C.3      366 DA      0.0000
   1918 C4'        0.6909    -6.9153  1181.6254 C.3      366 DA      0.0000
   1919 O4'        0.8518    -5.5307  1181.5046 O.3      366 DA      0.0000
   1920 C3'        0.4232    -7.4464  1180.2179 C.3      366 DA      0.0000
   1921 O3'       -0.8632    -8.0931  1180.1864 O.3      366 DA      0.0000
   1922 C2'        0.6476    -6.2296  1179.3183 C.3      366 DA      0.0000
   1923 C1'        0.3220    -5.0747  1180.2161 C.3      366 DA      0.0000
   1924 N9         0.9855    -3.8101  1179.9165 N.ar     366 DA      0.0000
   1925 C8         2.3267    -3.5523  1179.7218 C.ar     366 DA      0.0000
   1926 N7         2.5983    -2.2829  1179.5163 N.ar     366 DA      0.0000
   1927 C5         1.3688    -1.6578  1179.5909 C.ar     366 DA      0.0000
   1928 C6         0.9893    -0.3034  1179.4574 C.ar     366 DA      0.0000
   1929 N6         1.8450     0.6848  1179.2142 N.pl3    366 DA      0.0000
   1930 N1        -0.3516    -0.0551  1179.6062 N.ar     366 DA      0.0000
   1931 C2        -1.2409    -1.0346  1179.8587 C.ar     366 DA      0.0000
   1932 N3        -0.9561    -2.3330  1179.9976 N.ar     366 DA      0.0000
   1933 C4         0.3657    -2.5745  1179.8504 C.ar     366 DA      0.0000
   1934 H5'        1.8364    -8.6756  1182.0722 H        366 DA      0.0000
   1935 H5''       1.7365    -7.4945  1183.4061 H        366 DA      0.0000
   1936 H4'       -0.2089    -7.0884  1182.2155 H        366 DA      0.0000
   1937 H3'        1.1848    -8.1899  1179.9829 H        366 DA      0.0000
   1938 H2'        1.6822    -6.1806  1178.9784 H        366 DA      0.0000
   1939 H2''      -0.0326    -6.2543  1178.4670 H        366 DA      0.0000
   1940 H1'       -0.7571    -4.9329  1180.2772 H        366 DA      0.0000
   1941 H8         3.0836    -4.3225  1179.7367 H        366 DA      0.0000
   1942 H2        -2.2766    -0.7450  1179.9578 H        366 DA      0.0000
   1943 H61        1.5401     1.6017  1179.5082 H        366 DA      0.0000
   1944 H62        2.7371     0.5295  1178.7669 H        366 DA      0.0000
   1945 P         -1.3832    -8.7283  1178.8015 P.3      365 DT      0.0000
   1946 OP1       -2.5551    -9.6591  1178.8596 O.co2    365 DT      0.0000
   1947 OP2       -0.1133    -9.3278  1178.2888 O.co2    365 DT      0.0000
   1948 O5'       -1.9377    -7.3226  1178.0983 O.3      365 DT      0.0000
   1949 C5'       -2.6278    -6.5290  1179.1106 C.3      365 DT      0.0000
   1950 C4'       -3.5658    -5.5859  1178.4277 C.3      365 DT      0.0000
   1951 O4'       -3.0376    -4.3060  1178.2473 O.3      365 DT      0.0000
   1952 C3'       -4.0473    -6.0637  1177.0664 C.3      365 DT      0.0000
   1953 O3'       -5.4124    -5.7202  1176.7991 O.3      365 DT      0.0000
   1954 C2'       -3.0124    -5.3674  1176.1731 C.3      365 DT      0.0000
   1955 C1'       -2.9269    -3.9982  1176.8131 C.3      365 DT      0.0000
   1956 N1        -1.6068    -3.3816  1176.5831 N.am     365 DT      0.0000
   1957 C2        -1.5573    -2.0041  1176.4615 C.2      365 DT      0.0000
   1958 O2        -2.5840    -1.3241  1176.4983 O.2      365 DT      0.0000
   1959 N3        -0.3321    -1.4179  1176.2941 N.am     365 DT      0.0000
   1960 C4         0.8141    -2.1484  1176.2456 C.2      365 DT      0.0000
   1961 O4         1.9015    -1.5246  1176.0601 O.2      365 DT      0.0000
   1962 C5         0.7433    -3.5619  1176.3940 C.2      365 DT      0.0000
   1963 C7         1.9950    -4.4052  1176.3419 C.3      365 DT      0.0000
   1964 C6        -0.4601    -4.1186  1176.5670 C.2      365 DT      0.0000
   1965 H5'       -3.1891    -7.1884  1179.7727 H        365 DT      0.0000
   1966 H5''      -1.8988    -5.9632  1179.6907 H        365 DT      0.0000
   1967 H4'       -4.4447    -5.4861  1179.0647 H        365 DT      0.0000
   1968 H3'       -3.9226    -7.1441  1176.9944 H        365 DT      0.0000
   1969 H2'       -2.0514    -5.8809  1176.2037 H        365 DT      0.0000
   1970 H2''      -3.3764    -5.2917  1175.1485 H        365 DT      0.0000
   1971 H1'       -3.7361    -3.3487  1176.4792 H        365 DT      0.0000
   1972 H3        -0.2774    -0.4134  1176.2040 H        365 DT      0.0000
   1973 H6        -0.5259    -5.1886  1176.6984 H        365 DT      0.0000
   1974 H71        2.1211    -4.8074  1175.3367 H        365 DT      0.0000
   1975 H72        1.9093    -5.2265  1177.0535 H        365 DT      0.0000
   1976 H73        2.8580    -3.7908  1176.5984 H        365 DT      0.0000
   1977 P         -5.9615    -6.1115  1175.3092 P.3      364 DT      0.0000
   1978 OP1       -7.0379    -7.1885  1175.4572 O.co2    364 DT      0.0000
   1979 OP2       -4.7508    -6.6955  1174.6394 O.co2    364 DT      0.0000
   1980 O5'       -6.5122    -4.8176  1174.6572 O.3      364 DT      0.0000
   1981 C5'       -7.0779    -3.7435  1175.4086 C.3      364 DT      0.0000
   1982 C4'       -6.8386    -2.4713  1174.6606 C.3      364 DT      0.0000
   1983 O4'       -5.5324    -1.9650  1174.6036 O.3      364 DT      0.0000
   1984 C3'       -7.3188    -2.4058  1173.1945 C.3      364 DT      0.0000
   1985 O3'       -7.7221    -1.0369  1173.0908 O.3      364 DT      0.0000
   1986 C2'       -6.0170    -2.6824  1172.4308 C.3      364 DT      0.0000
   1987 C1'       -5.1383    -1.7225  1173.2065 C.3      364 DT      0.0000
   1988 N1        -3.6942    -1.9490  1173.1004 N.am     364 DT      0.0000
   1989 C2        -2.9031    -0.7923  1173.0997 C.2      364 DT      0.0000
   1990 O2        -3.4148     0.3284  1173.1428 O.2      364 DT      0.0000
   1991 N3        -1.5499    -0.9655  1173.0463 N.am     364 DT      0.0000
   1992 C4        -0.9651    -2.1955  1172.9865 C.2      364 DT      0.0000
   1993 O4         0.2999    -2.2509  1172.9241 O.2      364 DT      0.0000
   1994 C5        -1.7913    -3.3523  1172.9948 C.2      364 DT      0.0000
   1995 C7        -1.1549    -4.7252  1172.9334 C.3      364 DT      0.0000
   1996 C6        -3.1144    -3.1782  1173.0613 C.2      364 DT      0.0000
   1997 H5'       -8.1491    -3.9033  1175.5308 H        364 DT      0.0000
   1998 H5''      -6.6009    -3.6892  1176.3872 H        364 DT      0.0000
   1999 H4'       -7.4184    -1.7137  1175.1878 H        364 DT      0.0000
   2000 H3'       -8.1161    -3.1129  1172.9658 H        364 DT      0.0000
   2001 H2'       -6.0895    -2.4204  1171.3752 H        364 DT      0.0000
   2002 H2''      -5.6909    -3.7141  1172.5624 H        364 DT      0.0000
   2003 H1'       -5.3742    -0.6955  1172.9275 H        364 DT      0.0000
   2004 H3        -0.9571    -0.1478  1173.0512 H        364 DT      0.0000
   2005 H6        -3.7502    -4.0508  1173.0850 H        364 DT      0.0000
   2006 H71       -0.0709    -4.6219  1172.8845 H        364 DT      0.0000
   2007 H72       -1.5099    -5.2506  1172.0468 H        364 DT      0.0000
   2008 H73       -1.4261    -5.2915  1173.8243 H        364 DT      0.0000
   2009 P         -8.5489    -0.3942  1171.9446 P.3      363 DC      0.0000
   2010 OP1       -9.6865     0.4275  1172.5537 O.co2    363 DC      0.0000
   2011 OP2       -9.1170    -1.5369  1171.1627 O.co2    363 DC      0.0000
   2012 O5'       -7.4119     0.5084  1171.2052 O.3      363 DC      0.0000
   2013 C5'       -7.0173     1.7195  1171.9297 C.3      363 DC      0.0000
   2014 C4'       -6.7042     2.7531  1170.8791 C.3      363 DC      0.0000
   2015 O4'       -5.3214     2.8627  1170.6339 O.3      363 DC      0.0000
   2016 C3'       -7.3528     2.5136  1169.5147 C.3      363 DC      0.0000
   2017 O3'       -7.7059     3.7031  1168.8054 O.3      363 DC      0.0000
   2018 C2'       -6.2694     1.6702  1168.8286 C.3      363 DC      0.0000
   2019 C1'       -4.9809     2.2819  1169.3752 C.3      363 DC      0.0000
   2020 N1        -3.9759     1.1994  1169.4930 N.am     363 DC      0.0000
   2021 C2        -2.6346     1.5793  1169.5102 C.2      363 DC      0.0000
   2022 O2        -2.3057     2.7716  1169.4415 O.2      363 DC      0.0000
   2023 N3        -1.7025     0.5823  1169.6135 N.2      363 DC      0.0000
   2024 C4        -2.0519    -0.7288  1169.6842 C.2      363 DC      0.0000
   2025 N4        -1.1058    -1.6648  1169.7861 N.pl3    363 DC      0.0000
   2026 C5        -3.4281    -1.0893  1169.6591 C.2      363 DC      0.0000
   2027 C6        -4.3431    -0.1092  1169.5655 C.2      363 DC      0.0000
   2028 H5'       -7.8335     2.0622  1172.5656 H        363 DC      0.0000
   2029 H5''      -6.1318     1.5211  1172.5336 H        363 DC      0.0000
   2030 H4'       -7.0534     3.7175  1171.2479 H        363 DC      0.0000
   2031 H3'       -8.2455     1.9027  1169.6489 H        363 DC      0.0000
   2032 H2'       -6.3225     1.7670  1167.7442 H        363 DC      0.0000
   2033 H2''      -6.3529     0.6244  1169.1246 H        363 DC      0.0000
   2034 H1'       -4.6184     3.0533  1168.6958 H        363 DC      0.0000
   2035 H5        -3.7300    -2.1248  1169.7138 H        363 DC      0.0000
   2036 H6        -5.3921    -0.3656  1169.5474 H        363 DC      0.0000
   2037 H41       -0.1318    -1.3982  1169.8068 H        363 DC      0.0000
   2038 H42       -1.3639    -2.6397  1169.8425 H        363 DC      0.0000
   2039 P         -7.6127     3.9176  1167.1734 P.3      362 DA      0.0000
   2040 OP1       -8.5717     5.0217  1166.7839 O.co2    362 DA      0.0000
   2041 OP2       -7.9342     2.5810  1166.6034 O.co2    362 DA      0.0000
   2042 O5'       -6.1242     4.4703  1167.0079 O.3      362 DA      0.0000
   2043 C5'       -5.8418     5.8470  1167.4733 C.3      362 DA      0.0000
   2044 C4'       -4.6638     6.2351  1166.5961 C.3      362 DA      0.0000
   2045 O4'       -3.5545     5.3677  1166.8634 O.3      362 DA      0.0000
   2046 C3'       -4.9383     6.0614  1165.0916 C.3      362 DA      0.0000
   2047 O3'       -3.9945     6.7680  1164.3026 O.3      362 DA      0.0000
   2048 C2'       -4.5907     4.5732  1164.9042 C.3      362 DA      0.0000
   2049 C1'       -3.2358     4.6580  1165.6588 C.3      362 DA      0.0000
   2050 N9        -2.8113     3.2694  1165.8043 N.ar     362 DA      0.0000
   2051 C8        -3.6318     2.1659  1165.8771 C.ar     362 DA      0.0000
   2052 N7        -2.9766     1.0380  1165.9917 N.ar     362 DA      0.0000
   2053 C5        -1.6284     1.4379  1165.9854 C.ar     362 DA      0.0000
   2054 C6        -0.4304     0.6783  1166.0853 C.ar     362 DA      0.0000
   2055 N6        -0.4020    -0.6519  1166.2081 N.pl3    362 DA      0.0000
   2056 N1         0.7114     1.4206  1166.0502 N.ar     362 DA      0.0000
   2057 C2         0.6831     2.7706  1165.9313 C.ar     362 DA      0.0000
   2058 N3        -0.4020     3.5449  1165.8398 N.ar     362 DA      0.0000
   2059 C4        -1.5221     2.8017  1165.8673 C.ar     362 DA      0.0000
   2060 H5'       -6.6945     6.5051  1167.3066 H        362 DA      0.0000
   2061 H5''      -5.5552     5.8468  1168.5250 H        362 DA      0.0000
   2062 H4'       -4.3793     7.2674  1166.8000 H        362 DA      0.0000
   2063 H3'       -5.9692     6.2908  1164.8220 H        362 DA      0.0000
   2064 H2'       -5.3049     3.9054  1165.3858 H        362 DA      0.0000
   2065 H2''      -4.4507     4.3219  1163.8528 H        362 DA      0.0000
   2066 H1'       -2.5084     5.2172  1165.0704 H        362 DA      0.0000
   2067 H8        -4.7096     2.2250  1165.8431 H        362 DA      0.0000
   2068 H2         1.6385     3.2735  1165.9081 H        362 DA      0.0000
   2069 H61       -1.2654    -1.1753  1166.2329 H        362 DA      0.0000
   2070 H62        0.4829    -1.1340  1166.2763 H        362 DA      0.0000
   2071 P         -4.4732     7.7634  1163.1617 P.3      361 DC      0.0000
   2072 OP1       -4.7467     9.0385  1163.9420 O.co2    361 DC      0.0000
   2073 OP2       -5.6488     7.2692  1162.4361 O.co2    361 DC      0.0000
   2074 O5'       -3.1495     7.7644  1162.1858 O.3      361 DC      0.0000
   2075 C5'       -1.8630     8.0543  1162.8548 C.3      361 DC      0.0000
   2076 C4'       -0.7901     7.2166  1162.2108 C.3      361 DC      0.0000
   2077 O4'       -0.5823     5.9620  1162.8479 O.3      361 DC      0.0000
   2078 C3'       -1.0811     6.9041  1160.7330 C.3      361 DC      0.0000
   2079 O3'        0.0835     6.8141  1159.9217 O.3      361 DC      0.0000
   2080 C2'       -1.6996     5.4773  1160.8986 C.3      361 DC      0.0000
   2081 C1'       -0.5061     4.9791  1161.7942 C.3      361 DC      0.0000
   2082 N1        -0.7163     3.5750  1162.0321 N.am     361 DC      0.0000
   2083 C2         0.3787     2.7876  1162.3492 C.2      361 DC      0.0000
   2084 O2         1.5652     3.1046  1162.4897 O.2      361 DC      0.0000
   2085 N3         0.1716     1.4507  1162.5475 N.2      361 DC      0.0000
   2086 C4        -1.0681     0.8845  1162.4315 C.2      361 DC      0.0000
   2087 N4        -1.2247    -0.4309  1162.6476 N.pl3    361 DC      0.0000
   2088 C5        -2.1820     1.7052  1162.1018 C.2      361 DC      0.0000
   2089 C6        -1.9541     3.0097  1161.9101 C.2      361 DC      0.0000
   2090 H5'       -1.6207     9.1112  1162.7433 H        361 DC      0.0000
   2091 H5''      -1.9364     7.8050  1163.9134 H        361 DC      0.0000
   2092 H4'        0.1447     7.7752  1162.2575 H        361 DC      0.0000
   2093 H3'       -1.8039     7.6041  1160.3140 H        361 DC      0.0000
   2094 H2'       -2.6591     5.4779  1161.4157 H        361 DC      0.0000
   2095 H2''      -1.7483     4.9419  1159.9504 H        361 DC      0.0000
   2096 H1'        0.4285     5.1124  1161.2493 H        361 DC      0.0000
   2097 H5        -3.1751     1.2907  1162.0097 H        361 DC      0.0000
   2098 H6        -2.7869     3.6449  1161.6469 H        361 DC      0.0000
   2099 H41       -0.4269    -1.0016  1162.8881 H        361 DC      0.0000
   2100 H42       -2.1403    -0.8500  1162.5696 H        361 DC      0.0000
@<TRIPOS>BOND
     1      9     33 1
     2     41     65 1
     3     73     97 1
     4    105    127 1
     5    135    159 1
     6    197    222 1
     7    230    254 1
     8    262    287 1
     9    295    319 1
    10    327    351 1
    11      1      2 1
    12      1      3 1
    13      1      4 1
    14      4      5 1
    15      5      6 1
    16      6      7 1
    17      6      8 1
    18      7     11 1
    19      8      9 1
    20      8     10 1
    21     10     11 1
    22     11     12 1
    23     12     13 ar
    24     12     21 ar
    25     13     14 ar
    26     14     15 ar
    27     15     16 ar
    28     15     21 ar
    29     16     17 1
    30     16     18 ar
    31     18     19 ar
    32     19     20 ar
    33     20     21 ar
    34     33     34 1
    35     33     35 1
    36     33     36 1
    37     36     37 1
    38     37     38 1
    39     38     39 1
    40     38     40 1
    41     39     43 1
    42     40     41 1
    43     40     42 1
    44     42     43 1
    45     43     44 1
    46     44     45 am
    47     44     52 1
    48     45     46 2
    49     45     47 am
    50     47     48 am
    51     48     49 2
    52     48     50 1
    53     50     51 1
    54     50     52 2
    55     65     66 1
    56     65     67 1
    57     65     68 1
    58     68     69 1
    59     69     70 1
    60     70     71 1
    61     70     72 1
    62     71     75 1
    63     72     73 1
    64     72     74 1
    65     74     75 1
    66     75     76 1
    67     76     77 am
    68     76     84 1
    69     77     78 2
    70     77     79 am
    71     79     80 am
    72     80     81 2
    73     80     82 1
    74     82     83 1
    75     82     84 2
    76     97     98 1
    77     97     99 1
    78     97    100 1
    79    100    101 1
    80    101    102 1
    81    102    103 1
    82    102    104 1
    83    103    107 1
    84    104    105 1
    85    104    106 1
    86    106    107 1
    87    107    108 1
    88    108    109 am
    89    108    115 1
    90    109    110 2
    91    109    111 1
    92    111    112 2
    93    112    113 2
    94    112    114 2
    95    114    115 2
    96    127    128 1
    97    127    129 1
    98    127    130 1
    99    130    131 1
   100    131    132 1
   101    132    133 1
   102    132    134 1
   103    133    137 1
   104    134    135 1
   105    134    136 1
   106    136    137 1
   107    137    138 1
   108    138    139 ar
   109    138    147 ar
   110    139    140 ar
   111    140    141 ar
   112    141    142 ar
   113    141    147 ar
   114    142    143 1
   115    142    144 ar
   116    144    145 ar
   117    145    146 ar
   118    146    147 ar
   119    159    160 1
   120    159    161 1
   121    159    162 1
   122    162    163 1
   123    163    164 1
   124    164    165 1
   125    164    166 1
   126    165    169 1
   127    166    167 1
   128    166    168 1
   129    168    169 1
   130    169    170 1
   131    170    171 am
   132    170    177 1
   133    171    172 2
   134    171    173 1
   135    173    174 2
   136    174    175 2
   137    174    176 2
   138    176    177 2
   139    189    190 1
   140    189    191 1
   141    189    192 1
   142    192    193 1
   143    193    194 1
   144    194    195 1
   145    194    196 1
   146    195    199 1
   147    196    197 1
   148    196    198 1
   149    198    199 1
   150    199    200 1
   151    200    201 ar
   152    200    210 ar
   153    201    202 ar
   154    202    203 ar
   155    203    204 1
   156    203    210 ar
   157    204    205 2
   158    204    206 am
   159    206    207 1
   160    207    208 2
   161    207    209 2
   162    209    210 1
   163    222    223 1
   164    222    224 1
   165    222    225 1
   166    225    226 1
   167    226    227 1
   168    227    228 1
   169    227    229 1
   170    228    232 1
   171    229    230 1
   172    229    231 1
   173    231    232 1
   174    232    233 1
   175    233    234 am
   176    233    241 1
   177    234    235 2
   178    234    236 am
   179    236    237 am
   180    237    238 2
   181    237    239 1
   182    239    240 1
   183    239    241 2
   184    254    255 1
   185    254    256 1
   186    254    257 1
   187    257    258 1
   188    258    259 1
   189    259    260 1
   190    259    261 1
   191    260    264 1
   192    261    262 1
   193    261    263 1
   194    263    264 1
   195    264    265 1
   196    265    266 ar
   197    265    275 ar
   198    266    267 ar
   199    267    268 ar
   200    268    269 1
   201    268    275 ar
   202    269    270 2
   203    269    271 am
   204    271    272 1
   205    272    273 2
   206    272    274 2
   207    274    275 1
   208    287    288 1
   209    287    289 1
   210    287    290 1
   211    290    291 1
   212    291    292 1
   213    292    293 1
   214    292    294 1
   215    293    297 1
   216    294    295 1
   217    294    296 1
   218    296    297 1
   219    297    298 1
   220    298    299 ar
   221    298    307 ar
   222    299    300 ar
   223    300    301 ar
   224    301    302 ar
   225    301    307 ar
   226    302    303 1
   227    302    304 ar
   228    304    305 ar
   229    305    306 ar
   230    306    307 ar
   231    319    320 1
   232    319    321 1
   233    319    322 1
   234    322    323 1
   235    323    324 1
   236    324    325 1
   237    324    326 1
   238    325    329 1
   239    326    327 1
   240    326    328 1
   241    328    329 1
   242    329    330 1
   243    330    331 ar
   244    330    339 ar
   245    331    332 ar
   246    332    333 ar
   247    333    334 ar
   248    333    339 ar
   249    334    335 1
   250    334    336 ar
   251    336    337 ar
   252    337    338 ar
   253    338    339 ar
   254    351    352 1
   255    351    353 1
   256    351    354 1
   257    354    355 1
   258    355    356 1
   259    356    357 1
   260    356    358 1
   261    357    361 1
   262    358    359 1
   263    358    360 1
   264    360    361 1
   265    361    362 1
   266    362    363 am
   267    362    370 1
   268    363    364 2
   269    363    365 am
   270    365    366 am
   271    366    367 2
   272    366    368 1
   273    368    369 1
   274    368    370 2
   275     22      5 1
   276     23      5 1
   277     24      6 1
   278     25      8 1
   279     26     10 1
   280     27     10 1
   281     28     11 1
   282     29     13 1
   283     30     19 1
   284     53     37 1
   285     54     37 1
   286     55     38 1
   287     56     40 1
   288     57     42 1
   289     58     42 1
   290     59     43 1
   291     60     47 1
   292     61     52 1
   293     85     69 1
   294     86     69 1
   295     87     70 1
   296     88     72 1
   297     89     74 1
   298     90     74 1
   299     91     75 1
   300     92     79 1
   301     93     84 1
   302    116    101 1
   303    117    101 1
   304    118    102 1
   305    119    104 1
   306    120    106 1
   307    121    106 1
   308    122    107 1
   309    123    114 1
   310    124    115 1
   311    148    131 1
   312    149    131 1
   313    150    132 1
   314    151    134 1
   315    152    136 1
   316    153    136 1
   317    154    137 1
   318    155    139 1
   319    156    145 1
   320    178    163 1
   321    179    163 1
   322    180    164 1
   323    181    166 1
   324    182    168 1
   325    183    168 1
   326    184    169 1
   327    185    176 1
   328    186    177 1
   329    211    193 1
   330    212    193 1
   331    213    194 1
   332    214    196 1
   333    215    198 1
   334    216    198 1
   335    217    199 1
   336    218    201 1
   337    219    206 1
   338    242    226 1
   339    243    226 1
   340    244    227 1
   341    245    229 1
   342    246    231 1
   343    247    231 1
   344    248    232 1
   345    249    236 1
   346    250    241 1
   347    276    258 1
   348    277    258 1
   349    278    259 1
   350    279    261 1
   351    280    263 1
   352    281    263 1
   353    282    264 1
   354    283    266 1
   355    284    271 1
   356    308    291 1
   357    309    291 1
   358    310    292 1
   359    311    294 1
   360    312    296 1
   361    313    296 1
   362    314    297 1
   363    315    299 1
   364    316    305 1
   365    340    323 1
   366    341    323 1
   367    342    324 1
   368    343    326 1
   369    344    328 1
   370    345    328 1
   371    346    329 1
   372    347    331 1
   373    348    337 1
   374    371    355 1
   375    372    355 1
   376    373    356 1
   377    374    358 1
   378    375    360 1
   379    376    360 1
   380    377    361 1
   381    378    365 1
   382    379    370 1
   383    125    113 1
   384    126    113 1
   385    187    175 1
   386    188    175 1
   387    220    208 1
   388    221    208 1
   389    285    273 1
   390    286    273 1
   391     31     17 1
   392     32     17 1
   393    157    143 1
   394    158    143 1
   395    317    303 1
   396    318    303 1
   397    349    335 1
   398    350    335 1
   399     62     51 1
   400     63     51 1
   401     64     51 1
   402     94     83 1
   403     95     83 1
   404     96     83 1
   405    251    240 1
   406    252    240 1
   407    253    240 1
   408    380    369 1
   409    381    369 1
   410    382    369 1
   411    167    383 1
   412    189    997 1
   413    391    416 1
   414    424    448 1
   415    456    481 1
   416    489    513 1
   417    521    545 1
   418    553    577 1
   419    585    609 1
   420    617    639 1
   421    647    671 1
   422    709    734 1
   423    742    766 1
   424    774    799 1
   425    807    831 1
   426    839    863 1
   427    871    895 1
   428    903    927 1
   429    935    957 1
   430    965    989 1
   431    383    384 1
   432    383    385 1
   433    383    386 1
   434    386    387 1
   435    387    388 1
   436    388    389 1
   437    388    390 1
   438    389    393 1
   439    390    391 1
   440    390    392 1
   441    392    393 1
   442    393    394 1
   443    394    395 ar
   444    394    404 ar
   445    395    396 ar
   446    396    397 ar
   447    397    398 1
   448    397    404 ar
   449    398    399 2
   450    398    400 am
   451    400    401 1
   452    401    402 2
   453    401    403 2
   454    403    404 1
   455    416    417 1
   456    416    418 1
   457    416    419 1
   458    419    420 1
   459    420    421 1
   460    421    422 1
   461    421    423 1
   462    422    426 1
   463    423    424 1
   464    423    425 1
   465    425    426 1
   466    426    427 1
   467    427    428 am
   468    427    435 1
   469    428    429 2
   470    428    430 am
   471    430    431 am
   472    431    432 2
   473    431    433 1
   474    433    434 1
   475    433    435 2
   476    448    449 1
   477    448    450 1
   478    448    451 1
   479    451    452 1
   480    452    453 1
   481    453    454 1
   482    453    455 1
   483    454    458 1
   484    455    456 1
   485    455    457 1
   486    457    458 1
   487    458    459 1
   488    459    460 ar
   489    459    469 ar
   490    460    461 ar
   491    461    462 ar
   492    462    463 1
   493    462    469 ar
   494    463    464 2
   495    463    465 am
   496    465    466 1
   497    466    467 2
   498    466    468 2
   499    468    469 1
   500    481    482 1
   501    481    483 1
   502    481    484 1
   503    484    485 1
   504    485    486 1
   505    486    487 1
   506    486    488 1
   507    487    491 1
   508    488    489 1
   509    488    490 1
   510    490    491 1
   511    491    492 1
   512    492    493 ar
   513    492    501 ar
   514    493    494 ar
   515    494    495 ar
   516    495    496 ar
   517    495    501 ar
   518    496    497 1
   519    496    498 ar
   520    498    499 ar
   521    499    500 ar
   522    500    501 ar
   523    513    514 1
   524    513    515 1
   525    513    516 1
   526    516    517 1
   527    517    518 1
   528    518    519 1
   529    518    520 1
   530    519    523 1
   531    520    521 1
   532    520    522 1
   533    522    523 1
   534    523    524 1
   535    524    525 ar
   536    524    533 ar
   537    525    526 ar
   538    526    527 ar
   539    527    528 ar
   540    527    533 ar
   541    528    529 1
   542    528    530 ar
   543    530    531 ar
   544    531    532 ar
   545    532    533 ar
   546    545    546 1
   547    545    547 1
   548    545    548 1
   549    548    549 1
   550    549    550 1
   551    550    551 1
   552    550    552 1
   553    551    555 1
   554    552    553 1
   555    552    554 1
   556    554    555 1
   557    555    556 1
   558    556    557 am
   559    556    564 1
   560    557    558 2
   561    557    559 am
   562    559    560 am
   563    560    561 2
   564    560    562 1
   565    562    563 1
   566    562    564 2
   567    577    578 1
   568    577    579 1
   569    577    580 1
   570    580    581 1
   571    581    582 1
   572    582    583 1
   573    582    584 1
   574    583    587 1
   575    584    585 1
   576    584    586 1
   577    586    587 1
   578    587    588 1
   579    588    589 am
   580    588    596 1
   581    589    590 2
   582    589    591 am
   583    591    592 am
   584    592    593 2
   585    592    594 1
   586    594    595 1
   587    594    596 2
   588    609    610 1
   589    609    611 1
   590    609    612 1
   591    612    613 1
   592    613    614 1
   593    614    615 1
   594    614    616 1
   595    615    619 1
   596    616    617 1
   597    616    618 1
   598    618    619 1
   599    619    620 1
   600    620    621 am
   601    620    627 1
   602    621    622 2
   603    621    623 1
   604    623    624 2
   605    624    625 2
   606    624    626 2
   607    626    627 2
   608    639    640 1
   609    639    641 1
   610    639    642 1
   611    642    643 1
   612    643    644 1
   613    644    645 1
   614    644    646 1
   615    645    649 1
   616    646    647 1
   617    646    648 1
   618    648    649 1
   619    649    650 1
   620    650    651 ar
   621    650    659 ar
   622    651    652 ar
   623    652    653 ar
   624    653    654 ar
   625    653    659 ar
   626    654    655 1
   627    654    656 ar
   628    656    657 ar
   629    657    658 ar
   630    658    659 ar
   631    671    672 1
   632    671    673 1
   633    671    674 1
   634    674    675 1
   635    675    676 1
   636    676    677 1
   637    676    678 1
   638    677    681 1
   639    678    679 1
   640    678    680 1
   641    680    681 1
   642    681    682 1
   643    682    683 am
   644    682    689 1
   645    683    684 2
   646    683    685 1
   647    685    686 2
   648    686    687 2
   649    686    688 2
   650    688    689 2
   651    701    702 1
   652    701    703 1
   653    701    704 1
   654    704    705 1
   655    705    706 1
   656    706    707 1
   657    706    708 1
   658    707    711 1
   659    708    709 1
   660    708    710 1
   661    710    711 1
   662    711    712 1
   663    712    713 ar
   664    712    722 ar
   665    713    714 ar
   666    714    715 ar
   667    715    716 1
   668    715    722 ar
   669    716    717 2
   670    716    718 am
   671    718    719 1
   672    719    720 2
   673    719    721 2
   674    721    722 1
   675    734    735 1
   676    734    736 1
   677    734    737 1
   678    737    738 1
   679    738    739 1
   680    739    740 1
   681    739    741 1
   682    740    744 1
   683    741    742 1
   684    741    743 1
   685    743    744 1
   686    744    745 1
   687    745    746 am
   688    745    753 1
   689    746    747 2
   690    746    748 am
   691    748    749 am
   692    749    750 2
   693    749    751 1
   694    751    752 1
   695    751    753 2
   696    766    767 1
   697    766    768 1
   698    766    769 1
   699    769    770 1
   700    770    771 1
   701    771    772 1
   702    771    773 1
   703    772    776 1
   704    773    774 1
   705    773    775 1
   706    775    776 1
   707    776    777 1
   708    777    778 ar
   709    777    787 ar
   710    778    779 ar
   711    779    780 ar
   712    780    781 1
   713    780    787 ar
   714    781    782 2
   715    781    783 am
   716    783    784 1
   717    784    785 2
   718    784    786 2
   719    786    787 1
   720    799    800 1
   721    799    801 1
   722    799    802 1
   723    802    803 1
   724    803    804 1
   725    804    805 1
   726    804    806 1
   727    805    809 1
   728    806    807 1
   729    806    808 1
   730    808    809 1
   731    809    810 1
   732    810    811 ar
   733    810    819 ar
   734    811    812 ar
   735    812    813 ar
   736    813    814 ar
   737    813    819 ar
   738    814    815 1
   739    814    816 ar
   740    816    817 ar
   741    817    818 ar
   742    818    819 ar
   743    831    832 1
   744    831    833 1
   745    831    834 1
   746    834    835 1
   747    835    836 1
   748    836    837 1
   749    836    838 1
   750    837    841 1
   751    838    839 1
   752    838    840 1
   753    840    841 1
   754    841    842 1
   755    842    843 ar
   756    842    851 ar
   757    843    844 ar
   758    844    845 ar
   759    845    846 ar
   760    845    851 ar
   761    846    847 1
   762    846    848 ar
   763    848    849 ar
   764    849    850 ar
   765    850    851 ar
   766    863    864 1
   767    863    865 1
   768    863    866 1
   769    866    867 1
   770    867    868 1
   771    868    869 1
   772    868    870 1
   773    869    873 1
   774    870    871 1
   775    870    872 1
   776    872    873 1
   777    873    874 1
   778    874    875 am
   779    874    882 1
   780    875    876 2
   781    875    877 am
   782    877    878 am
   783    878    879 2
   784    878    880 1
   785    880    881 1
   786    880    882 2
   787    895    896 1
   788    895    897 1
   789    895    898 1
   790    898    899 1
   791    899    900 1
   792    900    901 1
   793    900    902 1
   794    901    905 1
   795    902    903 1
   796    902    904 1
   797    904    905 1
   798    905    906 1
   799    906    907 am
   800    906    914 1
   801    907    908 2
   802    907    909 am
   803    909    910 am
   804    910    911 2
   805    910    912 1
   806    912    913 1
   807    912    914 2
   808    927    928 1
   809    927    929 1
   810    927    930 1
   811    930    931 1
   812    931    932 1
   813    932    933 1
   814    932    934 1
   815    933    937 1
   816    934    935 1
   817    934    936 1
   818    936    937 1
   819    937    938 1
   820    938    939 am
   821    938    945 1
   822    939    940 2
   823    939    941 1
   824    941    942 2
   825    942    943 2
   826    942    944 2
   827    944    945 2
   828    957    958 1
   829    957    959 1
   830    957    960 1
   831    960    961 1
   832    961    962 1
   833    962    963 1
   834    962    964 1
   835    963    967 1
   836    964    965 1
   837    964    966 1
   838    966    967 1
   839    967    968 1
   840    968    969 ar
   841    968    977 ar
   842    969    970 ar
   843    970    971 ar
   844    971    972 ar
   845    971    977 ar
   846    972    973 1
   847    972    974 ar
   848    974    975 ar
   849    975    976 ar
   850    976    977 ar
   851    989    990 1
   852    989    991 1
   853    989    992 1
   854    992    993 1
   855    993    994 1
   856    994    995 1
   857    994    996 1
   858    995    999 1
   859    996    997 1
   860    996    998 1
   861    998    999 1
   862    999   1000 1
   863   1000   1001 am
   864   1000   1007 1
   865   1001   1002 2
   866   1001   1003 1
   867   1003   1004 2
   868   1004   1005 2
   869   1004   1006 2
   870   1006   1007 2
   871    405    387 1
   872    406    387 1
   873    407    388 1
   874    408    390 1
   875    409    392 1
   876    410    392 1
   877    411    393 1
   878    412    395 1
   879    413    400 1
   880    436    420 1
   881    437    420 1
   882    438    421 1
   883    439    423 1
   884    440    425 1
   885    441    425 1
   886    442    426 1
   887    443    430 1
   888    444    435 1
   889    470    452 1
   890    471    452 1
   891    472    453 1
   892    473    455 1
   893    474    457 1
   894    475    457 1
   895    476    458 1
   896    477    460 1
   897    478    465 1
   898    502    485 1
   899    503    485 1
   900    504    486 1
   901    505    488 1
   902    506    490 1
   903    507    490 1
   904    508    491 1
   905    509    493 1
   906    510    499 1
   907    534    517 1
   908    535    517 1
   909    536    518 1
   910    537    520 1
   911    538    522 1
   912    539    522 1
   913    540    523 1
   914    541    525 1
   915    542    531 1
   916    565    549 1
   917    566    549 1
   918    567    550 1
   919    568    552 1
   920    569    554 1
   921    570    554 1
   922    571    555 1
   923    572    559 1
   924    573    564 1
   925    597    581 1
   926    598    581 1
   927    599    582 1
   928    600    584 1
   929    601    586 1
   930    602    586 1
   931    603    587 1
   932    604    591 1
   933    605    596 1
   934    628    613 1
   935    629    613 1
   936    630    614 1
   937    631    616 1
   938    632    618 1
   939    633    618 1
   940    634    619 1
   941    635    626 1
   942    636    627 1
   943    660    643 1
   944    661    643 1
   945    662    644 1
   946    663    646 1
   947    664    648 1
   948    665    648 1
   949    666    649 1
   950    667    651 1
   951    668    657 1
   952    690    675 1
   953    691    675 1
   954    692    676 1
   955    693    678 1
   956    694    680 1
   957    695    680 1
   958    696    681 1
   959    697    688 1
   960    698    689 1
   961    723    705 1
   962    724    705 1
   963    725    706 1
   964    726    708 1
   965    727    710 1
   966    728    710 1
   967    729    711 1
   968    730    713 1
   969    731    718 1
   970    754    738 1
   971    755    738 1
   972    756    739 1
   973    757    741 1
   974    758    743 1
   975    759    743 1
   976    760    744 1
   977    761    748 1
   978    762    753 1
   979    788    770 1
   980    789    770 1
   981    790    771 1
   982    791    773 1
   983    792    775 1
   984    793    775 1
   985    794    776 1
   986    795    778 1
   987    796    783 1
   988    820    803 1
   989    821    803 1
   990    822    804 1
   991    823    806 1
   992    824    808 1
   993    825    808 1
   994    826    809 1
   995    827    811 1
   996    828    817 1
   997    852    835 1
   998    853    835 1
   999    854    836 1
  1000    855    838 1
  1001    856    840 1
  1002    857    840 1
  1003    858    841 1
  1004    859    843 1
  1005    860    849 1
  1006    883    867 1
  1007    884    867 1
  1008    885    868 1
  1009    886    870 1
  1010    887    872 1
  1011    888    872 1
  1012    889    873 1
  1013    890    877 1
  1014    891    882 1
  1015    915    899 1
  1016    916    899 1
  1017    917    900 1
  1018    918    902 1
  1019    919    904 1
  1020    920    904 1
  1021    921    905 1
  1022    922    909 1
  1023    923    914 1
  1024    946    931 1
  1025    947    931 1
  1026    948    932 1
  1027    949    934 1
  1028    950    936 1
  1029    951    936 1
  1030    952    937 1
  1031    953    944 1
  1032    954    945 1
  1033    978    961 1
  1034    979    961 1
  1035    980    962 1
  1036    981    964 1
  1037    982    966 1
  1038    983    966 1
  1039    984    967 1
  1040    985    969 1
  1041    986    975 1
  1042   1008    993 1
  1043   1009    993 1
  1044   1010    994 1
  1045   1011    996 1
  1046   1012    998 1
  1047   1013    998 1
  1048   1014    999 1
  1049   1015   1006 1
  1050   1016   1007 1
  1051    414    402 1
  1052    415    402 1
  1053    479    467 1
  1054    480    467 1
  1055    637    625 1
  1056    638    625 1
  1057    699    687 1
  1058    700    687 1
  1059    732    720 1
  1060    733    720 1
  1061    797    785 1
  1062    798    785 1
  1063    955    943 1
  1064    956    943 1
  1065   1017   1005 1
  1066   1018   1005 1
  1067    511    497 1
  1068    512    497 1
  1069    543    529 1
  1070    544    529 1
  1071    669    655 1
  1072    670    655 1
  1073    829    815 1
  1074    830    815 1
  1075    861    847 1
  1076    862    847 1
  1077    987    973 1
  1078    988    973 1
  1079    445    434 1
  1080    446    434 1
  1081    447    434 1
  1082    574    563 1
  1083    575    563 1
  1084    576    563 1
  1085    606    595 1
  1086    607    595 1
  1087    608    595 1
  1088    763    752 1
  1089    764    752 1
  1090    765    752 1
  1091    892    881 1
  1092    893    881 1
  1093    894    881 1
  1094    924    913 1
  1095    925    913 1
  1096    926    913 1
  1097    679   1019 1
  1098    701   1633 1
  1099   1027   1052 1
  1100   1060   1084 1
  1101   1092   1117 1
  1102   1125   1149 1
  1103   1157   1181 1
  1104   1189   1213 1
  1105   1221   1245 1
  1106   1253   1275 1
  1107   1283   1307 1
  1108   1345   1370 1
  1109   1378   1402 1
  1110   1410   1435 1
  1111   1443   1467 1
  1112   1475   1499 1
  1113   1507   1531 1
  1114   1539   1563 1
  1115   1571   1593 1
  1116   1601   1625 1
  1117   1019   1020 1
  1118   1019   1021 1
  1119   1019   1022 1
  1120   1022   1023 1
  1121   1023   1024 1
  1122   1024   1025 1
  1123   1024   1026 1
  1124   1025   1029 1
  1125   1026   1027 1
  1126   1026   1028 1
  1127   1028   1029 1
  1128   1029   1030 1
  1129   1030   1031 ar
  1130   1030   1040 ar
  1131   1031   1032 ar
  1132   1032   1033 ar
  1133   1033   1034 1
  1134   1033   1040 ar
  1135   1034   1035 2
  1136   1034   1036 am
  1137   1036   1037 1
  1138   1037   1038 2
  1139   1037   1039 2
  1140   1039   1040 1
  1141   1052   1053 1
  1142   1052   1054 1
  1143   1052   1055 1
  1144   1055   1056 1
  1145   1056   1057 1
  1146   1057   1058 1
  1147   1057   1059 1
  1148   1058   1062 1
  1149   1059   1060 1
  1150   1059   1061 1
  1151   1061   1062 1
  1152   1062   1063 1
  1153   1063   1064 am
  1154   1063   1071 1
  1155   1064   1065 2
  1156   1064   1066 am
  1157   1066   1067 am
  1158   1067   1068 2
  1159   1067   1069 1
  1160   1069   1070 1
  1161   1069   1071 2
  1162   1084   1085 1
  1163   1084   1086 1
  1164   1084   1087 1
  1165   1087   1088 1
  1166   1088   1089 1
  1167   1089   1090 1
  1168   1089   1091 1
  1169   1090   1094 1
  1170   1091   1092 1
  1171   1091   1093 1
  1172   1093   1094 1
  1173   1094   1095 1
  1174   1095   1096 ar
  1175   1095   1105 ar
  1176   1096   1097 ar
  1177   1097   1098 ar
  1178   1098   1099 1
  1179   1098   1105 ar
  1180   1099   1100 2
  1181   1099   1101 am
  1182   1101   1102 1
  1183   1102   1103 2
  1184   1102   1104 2
  1185   1104   1105 1
  1186   1117   1118 1
  1187   1117   1119 1
  1188   1117   1120 1
  1189   1120   1121 1
  1190   1121   1122 1
  1191   1122   1123 1
  1192   1122   1124 1
  1193   1123   1127 1
  1194   1124   1125 1
  1195   1124   1126 1
  1196   1126   1127 1
  1197   1127   1128 1
  1198   1128   1129 ar
  1199   1128   1137 ar
  1200   1129   1130 ar
  1201   1130   1131 ar
  1202   1131   1132 ar
  1203   1131   1137 ar
  1204   1132   1133 1
  1205   1132   1134 ar
  1206   1134   1135 ar
  1207   1135   1136 ar
  1208   1136   1137 ar
  1209   1149   1150 1
  1210   1149   1151 1
  1211   1149   1152 1
  1212   1152   1153 1
  1213   1153   1154 1
  1214   1154   1155 1
  1215   1154   1156 1
  1216   1155   1159 1
  1217   1156   1157 1
  1218   1156   1158 1
  1219   1158   1159 1
  1220   1159   1160 1
  1221   1160   1161 ar
  1222   1160   1169 ar
  1223   1161   1162 ar
  1224   1162   1163 ar
  1225   1163   1164 ar
  1226   1163   1169 ar
  1227   1164   1165 1
  1228   1164   1166 ar
  1229   1166   1167 ar
  1230   1167   1168 ar
  1231   1168   1169 ar
  1232   1181   1182 1
  1233   1181   1183 1
  1234   1181   1184 1
  1235   1184   1185 1
  1236   1185   1186 1
  1237   1186   1187 1
  1238   1186   1188 1
  1239   1187   1191 1
  1240   1188   1189 1
  1241   1188   1190 1
  1242   1190   1191 1
  1243   1191   1192 1
  1244   1192   1193 am
  1245   1192   1200 1
  1246   1193   1194 2
  1247   1193   1195 am
  1248   1195   1196 am
  1249   1196   1197 2
  1250   1196   1198 1
  1251   1198   1199 1
  1252   1198   1200 2
  1253   1213   1214 1
  1254   1213   1215 1
  1255   1213   1216 1
  1256   1216   1217 1
  1257   1217   1218 1
  1258   1218   1219 1
  1259   1218   1220 1
  1260   1219   1223 1
  1261   1220   1221 1
  1262   1220   1222 1
  1263   1222   1223 1
  1264   1223   1224 1
  1265   1224   1225 am
  1266   1224   1232 1
  1267   1225   1226 2
  1268   1225   1227 am
  1269   1227   1228 am
  1270   1228   1229 2
  1271   1228   1230 1
  1272   1230   1231 1
  1273   1230   1232 2
  1274   1245   1246 1
  1275   1245   1247 1
  1276   1245   1248 1
  1277   1248   1249 1
  1278   1249   1250 1
  1279   1250   1251 1
  1280   1250   1252 1
  1281   1251   1255 1
  1282   1252   1253 1
  1283   1252   1254 1
  1284   1254   1255 1
  1285   1255   1256 1
  1286   1256   1257 am
  1287   1256   1263 1
  1288   1257   1258 2
  1289   1257   1259 1
  1290   1259   1260 2
  1291   1260   1261 2
  1292   1260   1262 2
  1293   1262   1263 2
  1294   1275   1276 1
  1295   1275   1277 1
  1296   1275   1278 1
  1297   1278   1279 1
  1298   1279   1280 1
  1299   1280   1281 1
  1300   1280   1282 1
  1301   1281   1285 1
  1302   1282   1283 1
  1303   1282   1284 1
  1304   1284   1285 1
  1305   1285   1286 1
  1306   1286   1287 ar
  1307   1286   1295 ar
  1308   1287   1288 ar
  1309   1288   1289 ar
  1310   1289   1290 ar
  1311   1289   1295 ar
  1312   1290   1291 1
  1313   1290   1292 ar
  1314   1292   1293 ar
  1315   1293   1294 ar
  1316   1294   1295 ar
  1317   1307   1308 1
  1318   1307   1309 1
  1319   1307   1310 1
  1320   1310   1311 1
  1321   1311   1312 1
  1322   1312   1313 1
  1323   1312   1314 1
  1324   1313   1317 1
  1325   1314   1315 1
  1326   1314   1316 1
  1327   1316   1317 1
  1328   1317   1318 1
  1329   1318   1319 am
  1330   1318   1325 1
  1331   1319   1320 2
  1332   1319   1321 1
  1333   1321   1322 2
  1334   1322   1323 2
  1335   1322   1324 2
  1336   1324   1325 2
  1337   1337   1338 1
  1338   1337   1339 1
  1339   1337   1340 1
  1340   1340   1341 1
  1341   1341   1342 1
  1342   1342   1343 1
  1343   1342   1344 1
  1344   1343   1347 1
  1345   1344   1345 1
  1346   1344   1346 1
  1347   1346   1347 1
  1348   1347   1348 1
  1349   1348   1349 ar
  1350   1348   1358 ar
  1351   1349   1350 ar
  1352   1350   1351 ar
  1353   1351   1352 1
  1354   1351   1358 ar
  1355   1352   1353 2
  1356   1352   1354 am
  1357   1354   1355 1
  1358   1355   1356 2
  1359   1355   1357 2
  1360   1357   1358 1
  1361   1370   1371 1
  1362   1370   1372 1
  1363   1370   1373 1
  1364   1373   1374 1
  1365   1374   1375 1
  1366   1375   1376 1
  1367   1375   1377 1
  1368   1376   1380 1
  1369   1377   1378 1
  1370   1377   1379 1
  1371   1379   1380 1
  1372   1380   1381 1
  1373   1381   1382 am
  1374   1381   1389 1
  1375   1382   1383 2
  1376   1382   1384 am
  1377   1384   1385 am
  1378   1385   1386 2
  1379   1385   1387 1
  1380   1387   1388 1
  1381   1387   1389 2
  1382   1402   1403 1
  1383   1402   1404 1
  1384   1402   1405 1
  1385   1405   1406 1
  1386   1406   1407 1
  1387   1407   1408 1
  1388   1407   1409 1
  1389   1408   1412 1
  1390   1409   1410 1
  1391   1409   1411 1
  1392   1411   1412 1
  1393   1412   1413 1
  1394   1413   1414 ar
  1395   1413   1423 ar
  1396   1414   1415 ar
  1397   1415   1416 ar
  1398   1416   1417 1
  1399   1416   1423 ar
  1400   1417   1418 2
  1401   1417   1419 am
  1402   1419   1420 1
  1403   1420   1421 2
  1404   1420   1422 2
  1405   1422   1423 1
  1406   1435   1436 1
  1407   1435   1437 1
  1408   1435   1438 1
  1409   1438   1439 1
  1410   1439   1440 1
  1411   1440   1441 1
  1412   1440   1442 1
  1413   1441   1445 1
  1414   1442   1443 1
  1415   1442   1444 1
  1416   1444   1445 1
  1417   1445   1446 1
  1418   1446   1447 ar
  1419   1446   1455 ar
  1420   1447   1448 ar
  1421   1448   1449 ar
  1422   1449   1450 ar
  1423   1449   1455 ar
  1424   1450   1451 1
  1425   1450   1452 ar
  1426   1452   1453 ar
  1427   1453   1454 ar
  1428   1454   1455 ar
  1429   1467   1468 1
  1430   1467   1469 1
  1431   1467   1470 1
  1432   1470   1471 1
  1433   1471   1472 1
  1434   1472   1473 1
  1435   1472   1474 1
  1436   1473   1477 1
  1437   1474   1475 1
  1438   1474   1476 1
  1439   1476   1477 1
  1440   1477   1478 1
  1441   1478   1479 ar
  1442   1478   1487 ar
  1443   1479   1480 ar
  1444   1480   1481 ar
  1445   1481   1482 ar
  1446   1481   1487 ar
  1447   1482   1483 1
  1448   1482   1484 ar
  1449   1484   1485 ar
  1450   1485   1486 ar
  1451   1486   1487 ar
  1452   1499   1500 1
  1453   1499   1501 1
  1454   1499   1502 1
  1455   1502   1503 1
  1456   1503   1504 1
  1457   1504   1505 1
  1458   1504   1506 1
  1459   1505   1509 1
  1460   1506   1507 1
  1461   1506   1508 1
  1462   1508   1509 1
  1463   1509   1510 1
  1464   1510   1511 am
  1465   1510   1518 1
  1466   1511   1512 2
  1467   1511   1513 am
  1468   1513   1514 am
  1469   1514   1515 2
  1470   1514   1516 1
  1471   1516   1517 1
  1472   1516   1518 2
  1473   1531   1532 1
  1474   1531   1533 1
  1475   1531   1534 1
  1476   1534   1535 1
  1477   1535   1536 1
  1478   1536   1537 1
  1479   1536   1538 1
  1480   1537   1541 1
  1481   1538   1539 1
  1482   1538   1540 1
  1483   1540   1541 1
  1484   1541   1542 1
  1485   1542   1543 am
  1486   1542   1550 1
  1487   1543   1544 2
  1488   1543   1545 am
  1489   1545   1546 am
  1490   1546   1547 2
  1491   1546   1548 1
  1492   1548   1549 1
  1493   1548   1550 2
  1494   1563   1564 1
  1495   1563   1565 1
  1496   1563   1566 1
  1497   1566   1567 1
  1498   1567   1568 1
  1499   1568   1569 1
  1500   1568   1570 1
  1501   1569   1573 1
  1502   1570   1571 1
  1503   1570   1572 1
  1504   1572   1573 1
  1505   1573   1574 1
  1506   1574   1575 am
  1507   1574   1581 1
  1508   1575   1576 2
  1509   1575   1577 1
  1510   1577   1578 2
  1511   1578   1579 2
  1512   1578   1580 2
  1513   1580   1581 2
  1514   1593   1594 1
  1515   1593   1595 1
  1516   1593   1596 1
  1517   1596   1597 1
  1518   1597   1598 1
  1519   1598   1599 1
  1520   1598   1600 1
  1521   1599   1603 1
  1522   1600   1601 1
  1523   1600   1602 1
  1524   1602   1603 1
  1525   1603   1604 1
  1526   1604   1605 ar
  1527   1604   1613 ar
  1528   1605   1606 ar
  1529   1606   1607 ar
  1530   1607   1608 ar
  1531   1607   1613 ar
  1532   1608   1609 1
  1533   1608   1610 ar
  1534   1610   1611 ar
  1535   1611   1612 ar
  1536   1612   1613 ar
  1537   1625   1626 1
  1538   1625   1627 1
  1539   1625   1628 1
  1540   1628   1629 1
  1541   1629   1630 1
  1542   1630   1631 1
  1543   1630   1632 1
  1544   1631   1635 1
  1545   1632   1633 1
  1546   1632   1634 1
  1547   1634   1635 1
  1548   1635   1636 1
  1549   1636   1637 am
  1550   1636   1643 1
  1551   1637   1638 2
  1552   1637   1639 1
  1553   1639   1640 2
  1554   1640   1641 2
  1555   1640   1642 2
  1556   1642   1643 2
  1557   1041   1023 1
  1558   1042   1023 1
  1559   1043   1024 1
  1560   1044   1026 1
  1561   1045   1028 1
  1562   1046   1028 1
  1563   1047   1029 1
  1564   1048   1031 1
  1565   1049   1036 1
  1566   1072   1056 1
  1567   1073   1056 1
  1568   1074   1057 1
  1569   1075   1059 1
  1570   1076   1061 1
  1571   1077   1061 1
  1572   1078   1062 1
  1573   1079   1066 1
  1574   1080   1071 1
  1575   1106   1088 1
  1576   1107   1088 1
  1577   1108   1089 1
  1578   1109   1091 1
  1579   1110   1093 1
  1580   1111   1093 1
  1581   1112   1094 1
  1582   1113   1096 1
  1583   1114   1101 1
  1584   1138   1121 1
  1585   1139   1121 1
  1586   1140   1122 1
  1587   1141   1124 1
  1588   1142   1126 1
  1589   1143   1126 1
  1590   1144   1127 1
  1591   1145   1129 1
  1592   1146   1135 1
  1593   1170   1153 1
  1594   1171   1153 1
  1595   1172   1154 1
  1596   1173   1156 1
  1597   1174   1158 1
  1598   1175   1158 1
  1599   1176   1159 1
  1600   1177   1161 1
  1601   1178   1167 1
  1602   1201   1185 1
  1603   1202   1185 1
  1604   1203   1186 1
  1605   1204   1188 1
  1606   1205   1190 1
  1607   1206   1190 1
  1608   1207   1191 1
  1609   1208   1195 1
  1610   1209   1200 1
  1611   1233   1217 1
  1612   1234   1217 1
  1613   1235   1218 1
  1614   1236   1220 1
  1615   1237   1222 1
  1616   1238   1222 1
  1617   1239   1223 1
  1618   1240   1227 1
  1619   1241   1232 1
  1620   1264   1249 1
  1621   1265   1249 1
  1622   1266   1250 1
  1623   1267   1252 1
  1624   1268   1254 1
  1625   1269   1254 1
  1626   1270   1255 1
  1627   1271   1262 1
  1628   1272   1263 1
  1629   1296   1279 1
  1630   1297   1279 1
  1631   1298   1280 1
  1632   1299   1282 1
  1633   1300   1284 1
  1634   1301   1284 1
  1635   1302   1285 1
  1636   1303   1287 1
  1637   1304   1293 1
  1638   1326   1311 1
  1639   1327   1311 1
  1640   1328   1312 1
  1641   1329   1314 1
  1642   1330   1316 1
  1643   1331   1316 1
  1644   1332   1317 1
  1645   1333   1324 1
  1646   1334   1325 1
  1647   1359   1341 1
  1648   1360   1341 1
  1649   1361   1342 1
  1650   1362   1344 1
  1651   1363   1346 1
  1652   1364   1346 1
  1653   1365   1347 1
  1654   1366   1349 1
  1655   1367   1354 1
  1656   1390   1374 1
  1657   1391   1374 1
  1658   1392   1375 1
  1659   1393   1377 1
  1660   1394   1379 1
  1661   1395   1379 1
  1662   1396   1380 1
  1663   1397   1384 1
  1664   1398   1389 1
  1665   1424   1406 1
  1666   1425   1406 1
  1667   1426   1407 1
  1668   1427   1409 1
  1669   1428   1411 1
  1670   1429   1411 1
  1671   1430   1412 1
  1672   1431   1414 1
  1673   1432   1419 1
  1674   1456   1439 1
  1675   1457   1439 1
  1676   1458   1440 1
  1677   1459   1442 1
  1678   1460   1444 1
  1679   1461   1444 1
  1680   1462   1445 1
  1681   1463   1447 1
  1682   1464   1453 1
  1683   1488   1471 1
  1684   1489   1471 1
  1685   1490   1472 1
  1686   1491   1474 1
  1687   1492   1476 1
  1688   1493   1476 1
  1689   1494   1477 1
  1690   1495   1479 1
  1691   1496   1485 1
  1692   1519   1503 1
  1693   1520   1503 1
  1694   1521   1504 1
  1695   1522   1506 1
  1696   1523   1508 1
  1697   1524   1508 1
  1698   1525   1509 1
  1699   1526   1513 1
  1700   1527   1518 1
  1701   1551   1535 1
  1702   1552   1535 1
  1703   1553   1536 1
  1704   1554   1538 1
  1705   1555   1540 1
  1706   1556   1540 1
  1707   1557   1541 1
  1708   1558   1545 1
  1709   1559   1550 1
  1710   1582   1567 1
  1711   1583   1567 1
  1712   1584   1568 1
  1713   1585   1570 1
  1714   1586   1572 1
  1715   1587   1572 1
  1716   1588   1573 1
  1717   1589   1580 1
  1718   1590   1581 1
  1719   1614   1597 1
  1720   1615   1597 1
  1721   1616   1598 1
  1722   1617   1600 1
  1723   1618   1602 1
  1724   1619   1602 1
  1725   1620   1603 1
  1726   1621   1605 1
  1727   1622   1611 1
  1728   1644   1629 1
  1729   1645   1629 1
  1730   1646   1630 1
  1731   1647   1632 1
  1732   1648   1634 1
  1733   1649   1634 1
  1734   1650   1635 1
  1735   1651   1642 1
  1736   1652   1643 1
  1737   1050   1038 1
  1738   1051   1038 1
  1739   1115   1103 1
  1740   1116   1103 1
  1741   1273   1261 1
  1742   1274   1261 1
  1743   1335   1323 1
  1744   1336   1323 1
  1745   1368   1356 1
  1746   1369   1356 1
  1747   1433   1421 1
  1748   1434   1421 1
  1749   1591   1579 1
  1750   1592   1579 1
  1751   1653   1641 1
  1752   1654   1641 1
  1753   1147   1133 1
  1754   1148   1133 1
  1755   1179   1165 1
  1756   1180   1165 1
  1757   1305   1291 1
  1758   1306   1291 1
  1759   1465   1451 1
  1760   1466   1451 1
  1761   1497   1483 1
  1762   1498   1483 1
  1763   1623   1609 1
  1764   1624   1609 1
  1765   1081   1070 1
  1766   1082   1070 1
  1767   1083   1070 1
  1768   1210   1199 1
  1769   1211   1199 1
  1770   1212   1199 1
  1771   1242   1231 1
  1772   1243   1231 1
  1773   1244   1231 1
  1774   1399   1388 1
  1775   1400   1388 1
  1776   1401   1388 1
  1777   1528   1517 1
  1778   1529   1517 1
  1779   1530   1517 1
  1780   1560   1549 1
  1781   1561   1549 1
  1782   1562   1549 1
  1783   1315   1655 1
  1784   1337   2079 1
  1785   1663   1688 1
  1786   1696   1720 1
  1787   1728   1753 1
  1788   1761   1785 1
  1789   1793   1817 1
  1790   1825   1849 1
  1791   1889   1913 1
  1792   1921   1945 1
  1793   1953   1977 1
  1794   1985   2009 1
  1795   2017   2039 1
  1796   2047   2071 1
  1797   1655   1656 1
  1798   1655   1657 1
  1799   1655   1658 1
  1800   1658   1659 1
  1801   1659   1660 1
  1802   1660   1661 1
  1803   1660   1662 1
  1804   1661   1665 1
  1805   1662   1663 1
  1806   1662   1664 1
  1807   1664   1665 1
  1808   1665   1666 1
  1809   1666   1667 ar
  1810   1666   1676 ar
  1811   1667   1668 ar
  1812   1668   1669 ar
  1813   1669   1670 1
  1814   1669   1676 ar
  1815   1670   1671 2
  1816   1670   1672 am
  1817   1672   1673 1
  1818   1673   1674 2
  1819   1673   1675 2
  1820   1675   1676 1
  1821   1688   1689 1
  1822   1688   1690 1
  1823   1688   1691 1
  1824   1691   1692 1
  1825   1692   1693 1
  1826   1693   1694 1
  1827   1693   1695 1
  1828   1694   1698 1
  1829   1695   1696 1
  1830   1695   1697 1
  1831   1697   1698 1
  1832   1698   1699 1
  1833   1699   1700 am
  1834   1699   1707 1
  1835   1700   1701 2
  1836   1700   1702 am
  1837   1702   1703 am
  1838   1703   1704 2
  1839   1703   1705 1
  1840   1705   1706 1
  1841   1705   1707 2
  1842   1720   1721 1
  1843   1720   1722 1
  1844   1720   1723 1
  1845   1723   1724 1
  1846   1724   1725 1
  1847   1725   1726 1
  1848   1725   1727 1
  1849   1726   1730 1
  1850   1727   1728 1
  1851   1727   1729 1
  1852   1729   1730 1
  1853   1730   1731 1
  1854   1731   1732 ar
  1855   1731   1741 ar
  1856   1732   1733 ar
  1857   1733   1734 ar
  1858   1734   1735 1
  1859   1734   1741 ar
  1860   1735   1736 2
  1861   1735   1737 am
  1862   1737   1738 1
  1863   1738   1739 2
  1864   1738   1740 2
  1865   1740   1741 1
  1866   1753   1754 1
  1867   1753   1755 1
  1868   1753   1756 1
  1869   1756   1757 1
  1870   1757   1758 1
  1871   1758   1759 1
  1872   1758   1760 1
  1873   1759   1763 1
  1874   1760   1761 1
  1875   1760   1762 1
  1876   1762   1763 1
  1877   1763   1764 1
  1878   1764   1765 ar
  1879   1764   1773 ar
  1880   1765   1766 ar
  1881   1766   1767 ar
  1882   1767   1768 ar
  1883   1767   1773 ar
  1884   1768   1769 1
  1885   1768   1770 ar
  1886   1770   1771 ar
  1887   1771   1772 ar
  1888   1772   1773 ar
  1889   1785   1786 1
  1890   1785   1787 1
  1891   1785   1788 1
  1892   1788   1789 1
  1893   1789   1790 1
  1894   1790   1791 1
  1895   1790   1792 1
  1896   1791   1795 1
  1897   1792   1793 1
  1898   1792   1794 1
  1899   1794   1795 1
  1900   1795   1796 1
  1901   1796   1797 ar
  1902   1796   1805 ar
  1903   1797   1798 ar
  1904   1798   1799 ar
  1905   1799   1800 ar
  1906   1799   1805 ar
  1907   1800   1801 1
  1908   1800   1802 ar
  1909   1802   1803 ar
  1910   1803   1804 ar
  1911   1804   1805 ar
  1912   1817   1818 1
  1913   1817   1819 1
  1914   1817   1820 1
  1915   1820   1821 1
  1916   1821   1822 1
  1917   1822   1823 1
  1918   1822   1824 1
  1919   1823   1827 1
  1920   1824   1825 1
  1921   1824   1826 1
  1922   1826   1827 1
  1923   1827   1828 1
  1924   1828   1829 am
  1925   1828   1836 1
  1926   1829   1830 2
  1927   1829   1831 am
  1928   1831   1832 am
  1929   1832   1833 2
  1930   1832   1834 1
  1931   1834   1835 1
  1932   1834   1836 2
  1933   1849   1850 1
  1934   1849   1851 1
  1935   1849   1852 1
  1936   1852   1853 1
  1937   1853   1854 1
  1938   1854   1855 1
  1939   1854   1856 1
  1940   1855   1859 1
  1941   1856   1857 1
  1942   1856   1858 1
  1943   1858   1859 1
  1944   1859   1860 1
  1945   1860   1861 am
  1946   1860   1868 1
  1947   1861   1862 2
  1948   1861   1863 am
  1949   1863   1864 am
  1950   1864   1865 2
  1951   1864   1866 1
  1952   1866   1867 1
  1953   1866   1868 2
  1954   1881   1882 1
  1955   1881   1883 1
  1956   1881   1884 1
  1957   1884   1885 1
  1958   1885   1886 1
  1959   1886   1887 1
  1960   1886   1888 1
  1961   1887   1891 1
  1962   1888   1889 1
  1963   1888   1890 1
  1964   1890   1891 1
  1965   1891   1892 1
  1966   1892   1893 ar
  1967   1892   1901 ar
  1968   1893   1894 ar
  1969   1894   1895 ar
  1970   1895   1896 ar
  1971   1895   1901 ar
  1972   1896   1897 1
  1973   1896   1898 ar
  1974   1898   1899 ar
  1975   1899   1900 ar
  1976   1900   1901 ar
  1977   1913   1914 1
  1978   1913   1915 1
  1979   1913   1916 1
  1980   1916   1917 1
  1981   1917   1918 1
  1982   1918   1919 1
  1983   1918   1920 1
  1984   1919   1923 1
  1985   1920   1921 1
  1986   1920   1922 1
  1987   1922   1923 1
  1988   1923   1924 1
  1989   1924   1925 ar
  1990   1924   1933 ar
  1991   1925   1926 ar
  1992   1926   1927 ar
  1993   1927   1928 ar
  1994   1927   1933 ar
  1995   1928   1929 1
  1996   1928   1930 ar
  1997   1930   1931 ar
  1998   1931   1932 ar
  1999   1932   1933 ar
  2000   1945   1946 1
  2001   1945   1947 1
  2002   1945   1948 1
  2003   1948   1949 1
  2004   1949   1950 1
  2005   1950   1951 1
  2006   1950   1952 1
  2007   1951   1955 1
  2008   1952   1953 1
  2009   1952   1954 1
  2010   1954   1955 1
  2011   1955   1956 1
  2012   1956   1957 am
  2013   1956   1964 1
  2014   1957   1958 2
  2015   1957   1959 am
  2016   1959   1960 am
  2017   1960   1961 2
  2018   1960   1962 1
  2019   1962   1963 1
  2020   1962   1964 2
  2021   1977   1978 1
  2022   1977   1979 1
  2023   1977   1980 1
  2024   1980   1981 1
  2025   1981   1982 1
  2026   1982   1983 1
  2027   1982   1984 1
  2028   1983   1987 1
  2029   1984   1985 1
  2030   1984   1986 1
  2031   1986   1987 1
  2032   1987   1988 1
  2033   1988   1989 am
  2034   1988   1996 1
  2035   1989   1990 2
  2036   1989   1991 am
  2037   1991   1992 am
  2038   1992   1993 2
  2039   1992   1994 1
  2040   1994   1995 1
  2041   1994   1996 2
  2042   2009   2010 1
  2043   2009   2011 1
  2044   2009   2012 1
  2045   2012   2013 1
  2046   2013   2014 1
  2047   2014   2015 1
  2048   2014   2016 1
  2049   2015   2019 1
  2050   2016   2017 1
  2051   2016   2018 1
  2052   2018   2019 1
  2053   2019   2020 1
  2054   2020   2021 am
  2055   2020   2027 1
  2056   2021   2022 2
  2057   2021   2023 1
  2058   2023   2024 2
  2059   2024   2025 2
  2060   2024   2026 2
  2061   2026   2027 2
  2062   2039   2040 1
  2063   2039   2041 1
  2064   2039   2042 1
  2065   2042   2043 1
  2066   2043   2044 1
  2067   2044   2045 1
  2068   2044   2046 1
  2069   2045   2049 1
  2070   2046   2047 1
  2071   2046   2048 1
  2072   2048   2049 1
  2073   2049   2050 1
  2074   2050   2051 ar
  2075   2050   2059 ar
  2076   2051   2052 ar
  2077   2052   2053 ar
  2078   2053   2054 ar
  2079   2053   2059 ar
  2080   2054   2055 1
  2081   2054   2056 ar
  2082   2056   2057 ar
  2083   2057   2058 ar
  2084   2058   2059 ar
  2085   2071   2072 1
  2086   2071   2073 1
  2087   2071   2074 1
  2088   2074   2075 1
  2089   2075   2076 1
  2090   2076   2077 1
  2091   2076   2078 1
  2092   2077   2081 1
  2093   2078   2079 1
  2094   2078   2080 1
  2095   2080   2081 1
  2096   2081   2082 1
  2097   2082   2083 am
  2098   2082   2089 1
  2099   2083   2084 2
  2100   2083   2085 1
  2101   2085   2086 2
  2102   2086   2087 2
  2103   2086   2088 2
  2104   2088   2089 2
  2105   1677   1659 1
  2106   1678   1659 1
  2107   1679   1660 1
  2108   1680   1662 1
  2109   1681   1664 1
  2110   1682   1664 1
  2111   1683   1665 1
  2112   1684   1667 1
  2113   1685   1672 1
  2114   1708   1692 1
  2115   1709   1692 1
  2116   1710   1693 1
  2117   1711   1695 1
  2118   1712   1697 1
  2119   1713   1697 1
  2120   1714   1698 1
  2121   1715   1702 1
  2122   1716   1707 1
  2123   1742   1724 1
  2124   1743   1724 1
  2125   1744   1725 1
  2126   1745   1727 1
  2127   1746   1729 1
  2128   1747   1729 1
  2129   1748   1730 1
  2130   1749   1732 1
  2131   1750   1737 1
  2132   1774   1757 1
  2133   1775   1757 1
  2134   1776   1758 1
  2135   1777   1760 1
  2136   1778   1762 1
  2137   1779   1762 1
  2138   1780   1763 1
  2139   1781   1765 1
  2140   1782   1771 1
  2141   1806   1789 1
  2142   1807   1789 1
  2143   1808   1790 1
  2144   1809   1792 1
  2145   1810   1794 1
  2146   1811   1794 1
  2147   1812   1795 1
  2148   1813   1797 1
  2149   1814   1803 1
  2150   1837   1821 1
  2151   1838   1821 1
  2152   1839   1822 1
  2153   1840   1824 1
  2154   1841   1826 1
  2155   1842   1826 1
  2156   1843   1827 1
  2157   1844   1831 1
  2158   1845   1836 1
  2159   1869   1853 1
  2160   1870   1853 1
  2161   1871   1854 1
  2162   1872   1856 1
  2163   1873   1858 1
  2164   1874   1858 1
  2165   1875   1859 1
  2166   1876   1863 1
  2167   1877   1868 1
  2168   1902   1885 1
  2169   1903   1885 1
  2170   1904   1886 1
  2171   1905   1888 1
  2172   1906   1890 1
  2173   1907   1890 1
  2174   1908   1891 1
  2175   1909   1893 1
  2176   1910   1899 1
  2177   1934   1917 1
  2178   1935   1917 1
  2179   1936   1918 1
  2180   1937   1920 1
  2181   1938   1922 1
  2182   1939   1922 1
  2183   1940   1923 1
  2184   1941   1925 1
  2185   1942   1931 1
  2186   1965   1949 1
  2187   1966   1949 1
  2188   1967   1950 1
  2189   1968   1952 1
  2190   1969   1954 1
  2191   1970   1954 1
  2192   1971   1955 1
  2193   1972   1959 1
  2194   1973   1964 1
  2195   1997   1981 1
  2196   1998   1981 1
  2197   1999   1982 1
  2198   2000   1984 1
  2199   2001   1986 1
  2200   2002   1986 1
  2201   2003   1987 1
  2202   2004   1991 1
  2203   2005   1996 1
  2204   2028   2013 1
  2205   2029   2013 1
  2206   2030   2014 1
  2207   2031   2016 1
  2208   2032   2018 1
  2209   2033   2018 1
  2210   2034   2019 1
  2211   2035   2026 1
  2212   2036   2027 1
  2213   2060   2043 1
  2214   2061   2043 1
  2215   2062   2044 1
  2216   2063   2046 1
  2217   2064   2048 1
  2218   2065   2048 1
  2219   2066   2049 1
  2220   2067   2051 1
  2221   2068   2057 1
  2222   2090   2075 1
  2223   2091   2075 1
  2224   2092   2076 1
  2225   2093   2078 1
  2226   2094   2080 1
  2227   2095   2080 1
  2228   2096   2081 1
  2229   2097   2088 1
  2230   2098   2089 1
  2231   1686   1674 1
  2232   1687   1674 1
  2233   1751   1739 1
  2234   1752   1739 1
  2235   2037   2025 1
  2236   2038   2025 1
  2237   2099   2087 1
  2238   2100   2087 1
  2239   1783   1769 1
  2240   1784   1769 1
  2241   1815   1801 1
  2242   1816   1801 1
  2243   1911   1897 1
  2244   1912   1897 1
  2245   1943   1929 1
  2246   1944   1929 1
  2247   2069   2055 1
  2248   2070   2055 1
  2249   1717   1706 1
  2250   1718   1706 1
  2251   1719   1706 1
  2252   1846   1835 1
  2253   1847   1835 1
  2254   1848   1835 1
  2255   1878   1867 1
  2256   1879   1867 1
  2257   1880   1867 1
  2258   1974   1963 1
  2259   1975   1963 1
  2260   1976   1963 1
  2261   2006   1995 1
  2262   2007   1995 1
  2263   2008   1995 1
@<TRIPOS>MOLECULE
dna-seg-11-bp33
2098 2261 1 0 0
BIOPOLYMER
NO_CHARGES


@<TRIPOS>ATOM
      1 P         -8.9696    -1.6779  1182.8448 P.3      368 DC      0.0000
      2 OP1       -9.5143    -2.6069  1181.7769 O.co2    368 DC      0.0000
      3 OP2       -9.9725    -0.8857  1183.5798 O.co2    368 DC      0.0000
      4 O5'       -7.8509    -2.5302  1183.6708 O.3      368 DC      0.0000
      5 C5'       -6.8369    -2.8499  1182.6486 C.3      368 DC      0.0000
      6 C4'       -5.7240    -3.5798  1183.3451 C.3      368 DC      0.0000
      7 O4'       -4.6198    -2.7655  1183.5920 O.3      368 DC      0.0000
      8 C3'       -6.1216    -4.2856  1184.6365 C.3      368 DC      0.0000
      9 O3'       -5.8116    -5.6707  1184.5569 O.3      368 DC      0.0000
     10 C2'       -5.3958    -3.4401  1185.6853 C.3      368 DC      0.0000
     11 C1'       -4.2006    -2.9212  1184.9889 C.3      368 DC      0.0000
     12 N1        -3.7732    -1.5585  1185.3210 N.am     368 DC      0.0000
     13 C2        -2.4139    -1.3925  1185.5768 C.2      368 DC      0.0000
     14 O2        -1.6386    -2.3536  1185.5813 O.2      368 DC      0.0000
     15 N3        -1.9723    -0.1215  1185.8506 N.2      368 DC      0.0000
     16 C4        -2.8222     0.9452  1185.8407 C.2      368 DC      0.0000
     17 N4        -2.2996     2.1348  1186.1176 N.pl3    368 DC      0.0000
     18 C5        -4.1949     0.7640  1185.5627 C.2      368 DC      0.0000
     19 C6        -4.6134    -0.4907  1185.2979 C.2      368 DC      0.0000
     20 H5'       -7.2723    -3.4824  1181.8749 H        368 DC      0.0000
     21 H5''      -6.4560    -1.9303  1182.2044 H        368 DC      0.0000
     22 H4'       -5.3874    -4.3571  1182.6591 H        368 DC      0.0000
     23 H3'       -7.1964    -4.1749  1184.7798 H        368 DC      0.0000
     24 H2'       -6.0295    -2.6202  1186.0232 H        368 DC      0.0000
     25 H2''      -5.0996    -4.0609  1186.5308 H        368 DC      0.0000
     26 H1'       -3.3685    -3.6207  1185.0698 H        368 DC      0.0000
     27 H5        -4.8824     1.5969  1185.5621 H        368 DC      0.0000
     28 H6        -5.6541    -0.6525  1185.0589 H        368 DC      0.0000
     29 H41       -1.3130     2.2189  1186.3168 H        368 DC      0.0000
     30 H42       -2.8889     2.9550  1186.1289 H        368 DC      0.0000
     31 P         -6.4028    -6.8443  1185.5089 P.3      369 DA      0.0000
     32 OP1       -6.3356    -8.1349  1184.7152 O.co2    369 DA      0.0000
     33 OP2       -7.7939    -6.4877  1185.8544 O.co2    369 DA      0.0000
     34 O5'       -5.3900    -6.8509  1186.8059 O.3      369 DA      0.0000
     35 C5'       -3.9636    -6.9579  1186.5107 C.3      369 DA      0.0000
     36 C4'       -3.1614    -6.8510  1187.7660 C.3      369 DA      0.0000
     37 O4'       -2.5815    -5.5656  1188.0081 O.3      369 DA      0.0000
     38 C3'       -3.9322    -7.1101  1189.0712 C.3      369 DA      0.0000
     39 O3'       -2.9917    -7.4228  1190.1011 O.3      369 DA      0.0000
     40 C2'       -4.5374    -5.7084  1189.2858 C.3      369 DA      0.0000
     41 C1'       -3.2330    -4.9253  1189.1025 C.3      369 DA      0.0000
     42 N9        -3.5355    -3.5071  1189.0082 N.ar     369 DA      0.0000
     43 C8        -4.7333    -2.8578  1188.8924 C.ar     369 DA      0.0000
     44 N7        -4.6537    -1.5393  1188.8738 N.ar     369 DA      0.0000
     45 C5        -3.2904    -1.3034  1188.9813 C.ar     369 DA      0.0000
     46 C6        -2.5343    -0.1058  1189.0158 C.ar     369 DA      0.0000
     47 N6        -3.0489     1.1077  1188.9306 N.pl3    369 DA      0.0000
     48 N1        -1.1830    -0.2514  1189.1484 N.ar     369 DA      0.0000
     49 C2        -0.6067    -1.4912  1189.2286 C.ar     369 DA      0.0000
     50 N3        -1.2477    -2.6572  1189.1987 N.ar     369 DA      0.0000
     51 C4        -2.5877    -2.4936  1189.0757 C.ar     369 DA      0.0000
     52 H5'       -3.7660    -7.9208  1186.0395 H        369 DA      0.0000
     53 H5''      -3.6754    -6.1573  1185.8294 H        369 DA      0.0000
     54 H4'       -2.3508    -7.5773  1187.7071 H        369 DA      0.0000
     55 H3'       -4.6957    -7.8797  1188.9575 H        369 DA      0.0000
     56 H2'       -5.2863    -5.4562  1188.5350 H        369 DA      0.0000
     57 H2''      -4.9317    -5.5949  1190.2957 H        369 DA      0.0000
     58 H1'       -2.6224    -5.0789  1189.9922 H        369 DA      0.0000
     59 H8        -5.6741    -3.3834  1188.8214 H        369 DA      0.0000
     60 H2         0.4684    -1.5259  1189.3250 H        369 DA      0.0000
     61 H61       -2.6948     2.0363  1189.1106 H        369 DA      0.0000
     62 H62       -4.0086     1.1068  1188.6158 H        369 DA      0.0000
     63 P         -2.3654    -8.8886  1190.2416 P.3      370 DC      0.0000
     64 OP1       -2.4824    -9.6992  1188.9965 O.co2    370 DC      0.0000
     65 OP2       -3.1525    -9.4617  1191.3845 O.co2    370 DC      0.0000
     66 O5'       -0.8313    -8.6038  1190.5248 O.3      370 DC      0.0000
     67 C5'        0.0989    -8.3167  1189.4370 C.3      370 DC      0.0000
     68 C4'        1.1315    -7.4300  1190.1420 C.3      370 DC      0.0000
     69 O4'        0.4963    -6.2119  1190.4540 O.3      370 DC      0.0000
     70 C3'        1.6533    -8.0147  1191.4519 C.3      370 DC      0.0000
     71 O3'        3.0970    -8.0435  1191.5198 O.3      370 DC      0.0000
     72 C2'        1.0117    -7.1332  1192.5341 C.3      370 DC      0.0000
     73 C1'        0.8999    -5.8272  1191.8579 C.3      370 DC      0.0000
     74 N1        -0.1482    -4.8731  1192.2107 N.am     370 DC      0.0000
     75 C2         0.2367    -3.5339  1192.1839 C.2      370 DC      0.0000
     76 O2         1.3911    -3.1815  1191.9769 O.2      370 DC      0.0000
     77 N3        -0.7220    -2.6030  1192.4370 N.2      370 DC      0.0000
     78 C4        -2.0149    -2.9348  1192.6703 C.2      370 DC      0.0000
     79 N4        -2.8619    -1.9335  1192.9013 N.pl3    370 DC      0.0000
     80 C5        -2.3981    -4.3042  1192.6769 C.2      370 DC      0.0000
     81 C6        -1.4466    -5.2172  1192.4275 C.2      370 DC      0.0000
     82 H5'        0.5546    -9.2290  1189.0522 H        370 DC      0.0000
     83 H5''      -0.3996    -7.7678  1188.6380 H        370 DC      0.0000
     84 H4'        1.9682    -7.2415  1189.4693 H        370 DC      0.0000
     85 H3'        1.2760    -9.0319  1191.5578 H        370 DC      0.0000
     86 H2'        0.0312    -7.5132  1192.8211 H        370 DC      0.0000
     87 H2''       1.6638    -7.0595  1193.4044 H        370 DC      0.0000
     88 H1'        1.8695    -5.3293  1191.8447 H        370 DC      0.0000
     89 H5        -3.4180    -4.5989  1192.8754 H        370 DC      0.0000
     90 H6        -1.7210    -6.2613  1192.3977 H        370 DC      0.0000
     91 H41       -2.5310    -0.9794  1192.8902 H        370 DC      0.0000
     92 H42       -3.8354    -2.1284  1193.0874 H        370 DC      0.0000
     93 P         -1.7461     8.3065  1194.4793 P.3      370 DG      0.0000
     94 OP1       -2.1167     9.7444  1194.6581 O.co2    370 DG      0.0000
     95 OP2       -2.5583     7.6116  1193.3945 O.co2    370 DG      0.0000
     96 O5'       -0.1178     8.1844  1194.2721 O.3      370 DG      0.0000
     97 C5'        0.7044     7.6617  1195.3678 C.3      370 DG      0.0000
     98 C4'        1.7959     6.8027  1194.7336 C.3      370 DG      0.0000
     99 O4'        1.4158     5.4570  1194.6377 O.3      370 DG      0.0000
    100 C3'        2.2025     7.2348  1193.3272 C.3      370 DG      0.0000
    101 O3'        3.6209     7.1410  1193.0602 O.3      370 DG      0.0000
    102 C2'        1.3947     6.2846  1192.4249 C.3      370 DG      0.0000
    103 C1'        1.4343     5.0083  1193.2488 C.3      370 DG      0.0000
    104 N9         0.2588     4.1640  1192.9755 N.ar     370 DG      0.0000
    105 C8        -1.0482     4.5601  1192.8188 C.ar     370 DG      0.0000
    106 N7        -1.8789     3.5755  1192.6004 N.ar     370 DG      0.0000
    107 C5        -1.0667     2.4478  1192.6252 C.ar     370 DG      0.0000
    108 C6        -1.3714     1.0693  1192.4687 C.2      370 DG      0.0000
    109 O6        -2.4913     0.5766  1192.2719 O.2      370 DG      0.0000
    110 N1        -0.2830     0.2366  1192.5556 N.am     370 DG      0.0000
    111 C2         0.9735     0.6949  1192.7763 C.2      370 DG      0.0000
    112 N2         1.9278    -0.2297  1192.8396 N.pl3    370 DG      0.0000
    113 N3         1.3139     1.9799  1192.9340 N.2      370 DG      0.0000
    114 C4         0.2456     2.7963  1192.8507 C.ar     370 DG      0.0000
    115 H5'        1.1519     8.4843  1195.9256 H        370 DG      0.0000
    116 H5''       0.0923     7.0523  1196.0328 H        370 DG      0.0000
    117 H4'        2.6789     6.8576  1195.3703 H        370 DG      0.0000
    118 H3'        1.8720     8.2595  1193.1567 H        370 DG      0.0000
    119 H2'        0.3736     6.6384  1192.2823 H        370 DG      0.0000
    120 H2''       1.8934     6.1429  1191.4662 H        370 DG      0.0000
    121 H1'        2.3511     4.4556  1193.0435 H        370 DG      0.0000
    122 H8        -1.3605     5.5926  1192.8715 H        370 DG      0.0000
    123 H1        -0.4244    -0.7579  1192.4508 H        370 DG      0.0000
    124 H21        1.6940    -1.2055  1192.7246 H        370 DG      0.0000
    125 H22        2.8862     0.0441  1193.0028 H        370 DG      0.0000
    126 P          4.0219     6.8474  1191.5367 P.3      369 DT      0.0000
    127 OP1        5.3660     7.4002  1191.1458 O.co2    369 DT      0.0000
    128 OP2        2.9241     7.5581  1190.8362 O.co2    369 DT      0.0000
    129 O5'        4.0249     5.2505  1191.4058 O.3      369 DT      0.0000
    130 C5'        5.2924     4.5695  1191.6735 C.3      369 DT      0.0000
    131 C4'        5.3006     3.2593  1190.9164 C.3      369 DT      0.0000
    132 O4'        4.0321     2.6296  1190.8891 O.3      369 DT      0.0000
    133 C3'        5.7165     3.4139  1189.4617 C.3      369 DT      0.0000
    134 O3'        6.5373     2.3337  1188.9666 O.3      369 DT      0.0000
    135 C2'        4.3900     3.4905  1188.7389 C.3      369 DT      0.0000
    136 C1'        3.6226     2.4345  1189.5170 C.3      369 DT      0.0000
    137 N1         2.1938     2.7518  1189.3657 N.am     369 DT      0.0000
    138 C2         1.3119     1.6812  1189.4725 C.2      369 DT      0.0000
    139 O2         1.7333     0.5452  1189.6622 O.2      369 DT      0.0000
    140 N3        -0.0215     1.9567  1189.3523 N.am     369 DT      0.0000
    141 C4        -0.4797     3.2215  1189.1347 C.2      369 DT      0.0000
    142 O4        -1.7415     3.3801  1189.0371 O.2      369 DT      0.0000
    143 C5         0.4475     4.2972  1189.0283 C.2      369 DT      0.0000
    144 C7        -0.0468     5.6968  1188.7994 C.3      369 DT      0.0000
    145 C6         1.7487     4.0224  1189.1501 C.2      369 DT      0.0000
    146 H5'        6.1223     5.1924  1191.3398 H        369 DT      0.0000
    147 H5''       5.3861     4.3760  1192.7421 H        369 DT      0.0000
    148 H4'        6.0061     2.5867  1191.4044 H        369 DT      0.0000
    149 H3'        6.2491     4.3568  1189.3377 H        369 DT      0.0000
    150 H2'        3.9330     4.4758  1188.8304 H        369 DT      0.0000
    151 H2''       4.4975     3.2046  1187.6925 H        369 DT      0.0000
    152 H1'        3.8521     1.4283  1189.1663 H        369 DT      0.0000
    153 H3        -0.6869     1.2005  1189.4270 H        369 DT      0.0000
    154 H6         2.4660     4.8263  1189.0759 H        369 DT      0.0000
    155 H71       -1.1346     5.6918  1188.7307 H        369 DT      0.0000
    156 H72        0.2617     6.3312  1189.6303 H        369 DT      0.0000
    157 H73        0.3741     6.0835  1187.8712 H        369 DT      0.0000
    158 P          7.8319     3.0213  1188.1882 P.3      368 DG      0.0000
    159 OP1        9.0360     3.1738  1189.0595 O.co2    368 DG      0.0000
    160 OP2        7.1912     4.2972  1187.7827 O.co2    368 DG      0.0000
    161 O5'        8.1561     1.8893  1187.1074 O.3      368 DG      0.0000
    162 C5'        8.8758     0.7036  1187.5309 C.3      368 DG      0.0000
    163 C4'        8.0031    -0.4622  1187.0832 C.3      368 DG      0.0000
    164 O4'        6.6465    -0.1715  1187.3539 O.3      368 DG      0.0000
    165 C3'        8.1123    -0.7964  1185.5954 C.3      368 DG      0.0000
    166 O3'        8.4792    -2.1484  1185.3869 O.3      368 DG      0.0000
    167 C2'        6.7687    -0.3870  1185.0187 C.3      368 DG      0.0000
    168 C1'        5.8427    -0.5178  1186.2049 C.3      368 DG      0.0000
    169 N9         4.7017     0.3933  1186.0813 N.ar     368 DG      0.0000
    170 C8         4.7131     1.7502  1185.9224 C.ar     368 DG      0.0000
    171 N7         3.5178     2.2823  1185.8444 N.ar     368 DG      0.0000
    172 C5         2.6555     1.1985  1185.9819 C.ar     368 DG      0.0000
    173 C6         1.2384     1.1109  1185.9914 C.2      368 DG      0.0000
    174 O6         0.4384     2.0358  1185.8923 O.2      368 DG      0.0000
    175 N1         0.7482    -0.1554  1186.1403 N.am     368 DG      0.0000
    176 C2         1.5725    -1.2465  1186.2732 C.2      368 DG      0.0000
    177 N2         0.9623    -2.4242  1186.4089 N.pl3    368 DG      0.0000
    178 N3         2.9093    -1.2335  1186.2775 N.2      368 DG      0.0000
    179 C4         3.3804     0.0278  1186.1268 C.ar     368 DG      0.0000
    180 H5'        9.8539     0.6569  1187.0521 H        368 DG      0.0000
    181 H5''       8.9862     0.6970  1188.6152 H        368 DG      0.0000
    182 H4'        8.2871    -1.3448  1187.6562 H        368 DG      0.0000
    183 H3'        8.8816    -0.1609  1185.1568 H        368 DG      0.0000
    184 H2'        6.7949     0.6392  1184.6524 H        368 DG      0.0000
    185 H2''       6.4699    -1.0696  1184.2232 H        368 DG      0.0000
    186 H1'        5.4912    -1.5459  1186.2919 H        368 DG      0.0000
    187 H8         5.6223     2.3303  1185.8663 H        368 DG      0.0000
    188 H1        -0.2522    -0.2940  1186.1532 H        368 DG      0.0000
    189 H21       -0.0465    -2.4732  1186.4098 H        368 DG      0.0000
    190 H22        1.5089    -3.2673  1186.5107 H        368 DG      0.0000
    191 P          5.4012    -8.4385  1196.5208 P.3      371 DG      0.0000
    192 OP1        5.5107    -9.9182  1196.5193 O.co2    371 DG      0.0000
    193 OP2        4.3475    -8.0732  1197.5765 O.co2    371 DG      0.0000
    194 O5'        6.7528    -7.6180  1196.6992 O.3      371 DG      0.0000
    195 C5'        7.5427    -6.9402  1195.6992 C.3      371 DG      0.0000
    196 C4'        7.8342    -5.5403  1196.1980 C.3      371 DG      0.0000
    197 O4'        6.8563    -4.6132  1195.7789 O.3      371 DG      0.0000
    198 C3'        8.0075    -5.3414  1197.6902 C.3      371 DG      0.0000
    199 O3'        9.2690    -4.6912  1198.0022 O.3      371 DG      0.0000
    200 C2'        6.7951    -4.5332  1198.1121 C.3      371 DG      0.0000
    201 C1'        6.4117    -3.7881  1196.8565 C.3      371 DG      0.0000
    202 N9         4.9552    -3.5628  1196.8274 N.ar     371 DG      0.0000
    203 C8         3.9306    -4.4507  1197.0563 C.ar     371 DG      0.0000
    204 N7         2.7315    -3.9211  1196.9666 N.ar     371 DG      0.0000
    205 C5         2.9810    -2.5884  1196.6496 C.ar     371 DG      0.0000
    206 C6         2.1112    -1.4931  1196.4237 C.2      371 DG      0.0000
    207 O6         0.8800    -1.4804  1196.4449 O.2      371 DG      0.0000
    208 N1         2.7303    -0.3062  1196.1422 N.am     371 DG      0.0000
    209 C2         4.0171    -0.1779  1196.0815 C.2      371 DG      0.0000
    210 N2         4.3322     1.0228  1195.7847 N.pl3    371 DG      0.0000
    211 N3         4.9549    -1.1943  1196.2902 N.2      371 DG      0.0000
    212 C4         4.3406    -2.3545  1196.5628 C.ar     371 DG      0.0000
    213 H5'        8.4776    -7.4777  1195.5405 H        371 DG      0.0000
    214 H5''       6.9855    -6.8884  1194.7639 H        371 DG      0.0000
    215 H4'        8.7714    -5.2342  1195.7333 H        371 DG      0.0000
    216 H3'        7.9766    -6.3125  1198.1842 H        371 DG      0.0000
    217 H2'        5.9864    -5.1867  1198.4391 H        371 DG      0.0000
    218 H2''       7.0616    -3.8327  1198.9036 H        371 DG      0.0000
    219 H1'        6.9319    -2.8307  1196.8245 H        371 DG      0.0000
    220 H8         4.0969    -5.4921  1197.2894 H        371 DG      0.0000
    221 H1         2.1568     0.5080  1195.9738 H        371 DG      0.0000
    222 H21        3.6097     1.7135  1195.6404 H        371 DG      0.0000
    223 H22        5.3041     1.2822  1195.6943 H        371 DG      0.0000
    224 P          9.5949    -4.1033  1199.4308 P.3      372 DT      0.0000
    225 OP1       10.9942    -4.3285  1199.9424 O.co2    372 DT      0.0000
    226 OP2        8.7006    -4.9556  1200.3494 O.co2    372 DT      0.0000
    227 O5'        9.0998    -2.6346  1199.4593 O.3      372 DT      0.0000
    228 C5'        9.9894    -1.4934  1199.3154 C.3      372 DT      0.0000
    229 C4'        9.0754    -0.2874  1199.3729 C.3      372 DT      0.0000
    230 O4'        7.7329    -0.6223  1199.0977 O.3      372 DT      0.0000
    231 C3'        9.0232     0.4526  1200.6856 C.3      372 DT      0.0000
    232 O3'        9.5657     1.7679  1200.4974 O.3      372 DT      0.0000
    233 C2'        7.5468     0.5045  1201.0778 C.3      372 DT      0.0000
    234 C1'        6.8935     0.3905  1199.7251 C.3      372 DT      0.0000
    235 N1         5.5419    -0.1612  1199.8217 N.am     372 DT      0.0000
    236 C2         4.4949     0.6977  1199.6238 C.2      372 DT      0.0000
    237 O2         4.6573     1.8923  1199.3856 O.2      372 DT      0.0000
    238 N3         3.2335     0.1721  1199.7048 N.am     372 DT      0.0000
    239 C4         2.9967    -1.1345  1199.9607 C.2      372 DT      0.0000
    240 O4         1.7844    -1.4706  1200.0060 O.2      372 DT      0.0000
    241 C5         4.1050    -2.0188  1200.1604 C.2      372 DT      0.0000
    242 C7         3.8865    -3.4702  1200.4403 C.3      372 DT      0.0000
    243 C6         5.3352    -1.4961  1200.0790 C.2      372 DT      0.0000
    244 H5'       10.7144    -1.4658  1200.1288 H        372 DT      0.0000
    245 H5''      10.5019    -1.5332  1198.3542 H        372 DT      0.0000
    246 H4'        9.4053     0.4159  1198.6083 H        372 DT      0.0000
    247 H3'        9.5944    -0.0847  1201.4427 H        372 DT      0.0000
    248 H2'        7.2744    -0.3280  1201.7266 H        372 DT      0.0000
    249 H2''       7.3035     1.4578  1201.5470 H        372 DT      0.0000
    250 H1'        6.9129     1.3340  1199.1798 H        372 DT      0.0000
    251 H3         2.4446     0.7876  1199.5674 H        372 DT      0.0000
    252 H6         6.1897    -2.1416  1200.2193 H        372 DT      0.0000
    253 H71        4.0731    -4.0475  1199.5348 H        372 DT      0.0000
    254 H72        2.8579    -3.6265  1200.7651 H        372 DT      0.0000
    255 H73        4.5689    -3.7955  1201.2256 H        372 DT      0.0000
    256 P         10.4216     2.2926  1201.7773 P.3      373 DG      0.0000
    257 OP1       11.5256     3.0610  1201.0623 O.co2    373 DG      0.0000
    258 OP2       10.8930     1.1444  1202.5309 O.co2    373 DG      0.0000
    259 O5'        9.2397     3.2391  1202.3869 O.3      373 DG      0.0000
    260 C5'        8.6389     4.0348  1201.2963 C.3      373 DG      0.0000
    261 C4'        7.3629     4.6285  1201.8163 C.3      373 DG      0.0000
    262 O4'        6.1986     3.8676  1201.6357 O.3      373 DG      0.0000
    263 C3'        7.4408     4.9708  1203.3243 C.3      373 DG      0.0000
    264 O3'        7.0815     6.3647  1203.4832 O.3      373 DG      0.0000
    265 C2'        6.5218     3.9602  1203.9769 C.3      373 DG      0.0000
    266 C1'        5.4676     3.7553  1202.8954 C.3      373 DG      0.0000
    267 N9         4.7701     2.4757  1203.0649 N.ar     373 DG      0.0000
    268 C8         5.2896     1.2561  1203.4011 C.ar     373 DG      0.0000
    269 N7         4.4041     0.2879  1203.4868 N.ar     373 DG      0.0000
    270 C5         3.2109     0.9265  1203.1568 C.ar     373 DG      0.0000
    271 C6         1.8812     0.4250  1203.0625 C.2      373 DG      0.0000
    272 O6         1.4841    -0.7339  1203.2548 O.2      373 DG      0.0000
    273 N1         0.9393     1.3706  1202.7274 N.am     373 DG      0.0000
    274 C2         1.2723     2.6717  1202.5037 C.2      373 DG      0.0000
    275 N2         0.2271     3.4503  1202.1948 N.pl3    373 DG      0.0000
    276 N3         2.4976     3.1870  1202.5747 N.2      373 DG      0.0000
    277 C4         3.4193     2.2649  1202.9013 C.ar     373 DG      0.0000
    278 H5'        9.3226     4.8287  1200.9958 H        373 DG      0.0000
    279 H5''       8.4251     3.3899  1200.4439 H        373 DG      0.0000
    280 H4'        7.2120     5.5686  1201.2857 H        373 DG      0.0000
    281 H3'        8.4598     4.8164  1203.6791 H        373 DG      0.0000
    282 H2'        7.0474     3.0317  1204.1999 H        373 DG      0.0000
    283 H2''       6.0724     4.3747  1204.8793 H        373 DG      0.0000
    284 H1'        4.7397     4.5645  1202.9543 H        373 DG      0.0000
    285 H8         6.3431     1.1006  1203.5817 H        373 DG      0.0000
    286 H1        -0.0279     1.0912  1202.6451 H        373 DG      0.0000
    287 H21       -0.7006     3.0539  1202.1446 H        373 DG      0.0000
    288 H22        0.3665     4.4339  1202.0122 H        373 DG      0.0000
    289 P          7.1652     7.0782  1204.8716 P.3      374 DA      0.0000
    290 OP1        8.4713     7.7116  1205.2270 O.co2    374 DA      0.0000
    291 OP2        7.0011     5.7958  1205.7673 O.co2    374 DA      0.0000
    292 O5'        5.8269     7.8916  1205.1207 O.3      374 DA      0.0000
    293 C5'        4.9410     8.3562  1204.0917 C.3      374 DA      0.0000
    294 C4'        3.5456     7.9839  1204.5660 C.3      374 DA      0.0000
    295 O4'        3.3515     6.5887  1204.4756 O.3      374 DA      0.0000
    296 C3'        3.1858     8.3907  1205.9951 C.3      374 DA      0.0000
    297 O3'        1.8894     9.0214  1206.0473 O.3      374 DA      0.0000
    298 C2'        3.2277     7.0457  1206.7305 C.3      374 DA      0.0000
    299 C1'        2.6188     6.1613  1205.6529 C.3      374 DA      0.0000
    300 N9         2.8208     4.7270  1205.8813 N.ar     374 DA      0.0000
    301 C8         3.9732     4.0260  1206.0971 C.ar     374 DA      0.0000
    302 N7         3.7886     2.7350  1206.2620 N.ar     374 DA      0.0000
    303 C5         2.4182     2.5746  1206.1218 C.ar     374 DA      0.0000
    304 C6         1.6011     1.4240  1206.1698 C.ar     374 DA      0.0000
    305 N6         2.0518     0.1866  1206.3896 N.pl3    374 DA      0.0000
    306 N1         0.2669     1.6487  1205.9800 N.ar     374 DA      0.0000
    307 C2        -0.2114     2.8955  1205.7623 C.ar     374 DA      0.0000
    308 N3         0.4965     4.0229  1205.7040 N.ar     374 DA      0.0000
    309 C4         1.8071     3.7828  1205.8908 C.ar     374 DA      0.0000
    310 H5'        5.1656     7.8658  1203.1445 H        374 DA      0.0000
    311 H5''       5.0249     9.4376  1203.9839 H        374 DA      0.0000
    312 H4'        2.8303     8.4614  1203.8962 H        374 DA      0.0000
    313 H3'        3.9455     9.0614  1206.3965 H        374 DA      0.0000
    314 H2'        4.2467     6.7465  1206.9760 H        374 DA      0.0000
    315 H2''       2.6000     7.0664  1207.6214 H        374 DA      0.0000
    316 H1'        1.5573     6.3806  1205.5384 H        374 DA      0.0000
    317 H8         4.9478     4.4903  1206.1292 H        374 DA      0.0000
    318 H2        -1.2783     2.9865  1205.6209 H        374 DA      0.0000
    319 H61        3.0140    -0.1048  1206.2922 H        374 DA      0.0000
    320 H62        1.4272    -0.5884  1206.2181 H        374 DA      0.0000
    321 P          1.4999    10.1365  1207.1888 P.3      375 DA      0.0000
    322 OP1        1.1762    11.4502  1206.5217 O.co2    375 DA      0.0000
    323 OP2        2.7211    10.1321  1208.0197 O.co2    375 DA      0.0000
    324 O5'        0.0914     9.6080  1207.7196 O.3      375 DA      0.0000
    325 C5'       -1.0663     9.4836  1206.8953 C.3      375 DA      0.0000
    326 C4'       -1.8951     8.3232  1207.4176 C.3      375 DA      0.0000
    327 O4'       -1.1495     7.1390  1207.4458 O.3      375 DA      0.0000
    328 C3'       -2.5373     8.4812  1208.7849 C.3      375 DA      0.0000
    329 O3'       -3.9625     8.4632  1208.7071 O.3      375 DA      0.0000
    330 C2'       -1.9153     7.3505  1209.6136 C.3      375 DA      0.0000
    331 C1'       -1.4993     6.3368  1208.6198 C.3      375 DA      0.0000
    332 N9        -0.3459     5.4587  1208.8879 N.ar     375 DA      0.0000
    333 C8         0.9887     5.7636  1209.0031 C.ar     375 DA      0.0000
    334 N7         1.7652     4.7197  1209.1724 N.ar     375 DA      0.0000
    335 C5         0.8855     3.6427  1209.1354 C.ar     375 DA      0.0000
    336 C6         1.0991     2.2399  1209.2558 C.ar     375 DA      0.0000
    337 N6         2.2741     1.6534  1209.4475 N.pl3    375 DA      0.0000
    338 N1        -0.0249     1.4584  1209.1577 N.ar     375 DA      0.0000
    339 C2        -1.2515     2.0260  1208.9686 C.ar     375 DA      0.0000
    340 N3        -1.5203     3.3221  1208.8607 N.ar     375 DA      0.0000
    341 C4        -0.4070     4.0769  1208.9526 C.ar     375 DA      0.0000
    342 H5'       -0.7671     9.2895  1205.8652 H        375 DA      0.0000
    343 H5''      -1.6507    10.4025  1206.9412 H        375 DA      0.0000
    344 H4'       -2.7052     8.1686  1206.7049 H        375 DA      0.0000
    345 H3'       -2.2241     9.4356  1209.2081 H        375 DA      0.0000
    346 H2'       -1.0541     7.7146  1210.1739 H        375 DA      0.0000
    347 H2''      -2.6565     6.9299  1210.2932 H        375 DA      0.0000
    348 H1'       -2.3605     5.7157  1208.3738 H        375 DA      0.0000
    349 H8         1.3658     6.7746  1208.9582 H        375 DA      0.0000
    350 H2        -2.0913     1.3505  1208.8994 H        375 DA      0.0000
    351 H61        3.0835     2.1620  1209.7736 H        375 DA      0.0000
    352 H62        2.3620     0.6647  1209.2607 H        375 DA      0.0000
    353 P         -4.9721     9.3063  1209.6633 P.3      376 DT      0.0000
    354 OP1       -6.1205     9.9142  1208.8660 O.co2    376 DT      0.0000
    355 OP2       -4.2353    10.2445  1210.4839 O.co2    376 DT      0.0000
    356 O5'       -5.7390     8.1001  1210.4770 O.3      376 DT      0.0000
    357 C5'       -6.0269     6.9827  1209.5319 C.3      376 DT      0.0000
    358 C4'       -5.7100     5.7369  1210.3196 C.3      376 DT      0.0000
    359 O4'       -4.3295     5.5241  1210.5116 O.3      376 DT      0.0000
    360 C3'       -6.3126     5.7750  1211.7362 C.3      376 DT      0.0000
    361 O3'       -7.5297     5.0522  1211.7379 O.3      376 DT      0.0000
    362 C2'       -5.2213     5.1965  1212.6335 C.3      376 DT      0.0000
    363 C1'       -4.2887     4.5801  1211.6689 C.3      376 DT      0.0000
    364 N1        -2.8865     4.3978  1212.0086 N.am     376 DT      0.0000
    365 C2        -2.4384     3.0878  1212.1466 C.2      376 DT      0.0000
    366 O2        -3.2327     2.1603  1212.0585 O.2      376 DT      0.0000
    367 N3        -1.1159     2.8828  1212.4005 N.am     376 DT      0.0000
    368 C4        -0.2205     3.9069  1212.5207 C.2      376 DT      0.0000
    369 O4         0.9959     3.6341  1212.7759 O.2      376 DT      0.0000
    370 C5        -0.7008     5.2469  1212.3491 C.2      376 DT      0.0000
    371 C7         0.2481     6.4099  1212.4366 C.3      376 DT      0.0000
    372 C6        -2.0058     5.4433  1212.0933 C.2      376 DT      0.0000
    373 H5'       -7.0743     6.9926  1209.2303 H        376 DT      0.0000
    374 H5''      -5.3806     7.0515  1208.6569 H        376 DT      0.0000
    375 H4'       -6.1228     4.8780  1209.7905 H        376 DT      0.0000
    376 H3'       -6.5049     6.8096  1212.0206 H        376 DT      0.0000
    377 H2'       -4.7288     5.9818  1213.2069 H        376 DT      0.0000
    378 H2''      -5.6361     4.4402  1213.2999 H        376 DT      0.0000
    379 H1'       -4.6983     3.6211  1211.3515 H        376 DT      0.0000
    380 H3        -0.7839     1.9346  1212.5042 H        376 DT      0.0000
    381 H6        -2.3688     6.4505  1211.9512 H        376 DT      0.0000
    382 H71        1.2527     6.0446  1212.6497 H        376 DT      0.0000
    383 H72        0.2509     6.9482  1211.4888 H        376 DT      0.0000
    384 H73       -0.0715     7.0804  1213.2344 H        376 DT      0.0000
    385 P         -8.6150     4.9676  1212.8445 P.3      377 DT      0.0000
    386 OP1       -9.9798     4.5587  1212.2324 O.co2    377 DT      0.0000
    387 OP2       -8.6736     6.3118  1213.4745 O.co2    377 DT      0.0000
    388 O5'       -8.1906     3.6975  1213.7268 O.3      377 DT      0.0000
    389 C5'       -8.3708     2.4438  1213.0151 C.3      377 DT      0.0000
    390 C4'       -7.5636     1.3906  1213.6912 C.3      377 DT      0.0000
    391 O4'       -6.1631     1.6367  1213.6679 O.3      377 DT      0.0000
    392 C3'       -7.9450     1.1431  1215.1578 C.3      377 DT      0.0000
    393 O3'       -7.9957    -0.2461  1215.4219 O.3      377 DT      0.0000
    394 C2'       -6.7384     1.7722  1215.8942 C.3      377 DT      0.0000
    395 C1'       -5.6497     1.2300  1214.9906 C.3      377 DT      0.0000
    396 N1        -4.3693     1.8449  1215.2883 N.am     377 DT      0.0000
    397 C2        -3.2450     1.0370  1215.3431 C.2      377 DT      0.0000
    398 O2        -3.3713    -0.1738  1215.1547 O.2      377 DT      0.0000
    399 N3        -2.0399     1.6238  1215.6091 N.am     377 DT      0.0000
    400 C4        -1.9150     2.9633  1215.8161 C.2      377 DT      0.0000
    401 O4        -0.7646     3.4376  1216.0394 O.2      377 DT      0.0000
    402 C5        -3.0777     3.7852  1215.7510 C.2      377 DT      0.0000
    403 C7        -3.0208     5.2703  1215.9609 C.3      377 DT      0.0000
    404 C6        -4.2532     3.1925  1215.4899 C.2      377 DT      0.0000
    405 H5'       -9.4240     2.1631  1213.0275 H        377 DT      0.0000
    406 H5''      -8.0346     2.5568  1211.9843 H        377 DT      0.0000
    407 H4'       -7.7354     0.4585  1213.1527 H        377 DT      0.0000
    408 H3'       -8.8801     1.6378  1215.4203 H        377 DT      0.0000
    409 H2'       -6.7739     2.8616  1215.8929 H        377 DT      0.0000
    410 H2''      -6.6442     1.3803  1216.9069 H        377 DT      0.0000
    411 H1'       -5.5866     0.1445  1215.0662 H        377 DT      0.0000
    412 H3        -1.2141     1.0440  1215.6535 H        377 DT      0.0000
    413 H6        -5.1421     3.8035  1215.4368 H        377 DT      0.0000
    414 H71       -1.9920     5.5706  1216.1598 H        377 DT      0.0000
    415 H72       -3.3804     5.7775  1215.0656 H        377 DT      0.0000
    416 H73       -3.6490     5.5417  1216.8093 H        377 DT      0.0000
    417 P         -9.0394    -1.2481  1216.0298 P.3      378 DC      0.0000
    418 OP1       -9.6279    -2.1500  1214.9619 O.co2    378 DC      0.0000
    419 OP2      -10.0034    -0.4089  1216.7648 O.co2    378 DC      0.0000
    420 O5'       -7.9627    -2.1528  1216.8559 O.3      378 DC      0.0000
    421 C5'       -6.9651    -2.5204  1215.8336 C.3      378 DC      0.0000
    422 C4'       -5.8882    -3.3026  1216.5301 C.3      378 DC      0.0000
    423 O4'       -4.7465    -2.5419  1216.7770 O.3      378 DC      0.0000
    424 C3'       -6.3191    -3.9887  1217.8216 C.3      378 DC      0.0000
    425 O3'       -6.0755    -5.3869  1217.7419 O.3      378 DC      0.0000
    426 C2'       -5.5538    -3.1788  1218.8703 C.3      378 DC      0.0000
    427 C1'       -4.3352    -2.7175  1218.1739 C.3      378 DC      0.0000
    428 N1        -3.8433    -1.3767  1218.5060 N.am     378 DC      0.0000
    429 C2        -2.4775    -1.2757  1218.7618 C.2      378 DC      0.0000
    430 O2        -1.7490    -2.2727  1218.7663 O.2      378 DC      0.0000
    431 N3        -1.9759    -0.0273  1219.0357 N.2      378 DC      0.0000
    432 C4        -2.7739     1.0788  1219.0257 C.2      378 DC      0.0000
    433 N4        -2.1951     2.2420  1219.3026 N.pl3    378 DC      0.0000
    434 C5        -4.1537     0.9633  1218.7477 C.2      378 DC      0.0000
    435 C6        -4.6316    -0.2700  1218.4829 C.2      378 DC      0.0000
    436 H5'       -7.4302    -3.1314  1215.0600 H        378 DC      0.0000
    437 H5''      -6.5407    -1.6201  1215.3894 H        378 DC      0.0000
    438 H4'       -5.5892    -4.0951  1215.8441 H        378 DC      0.0000
    439 H3'       -7.3874    -3.8268  1217.9649 H        378 DC      0.0000
    440 H2'       -6.1477    -2.3296  1219.2082 H        378 DC      0.0000
    441 H2''      -5.2875    -3.8130  1219.7159 H        378 DC      0.0000
    442 H1'       -3.5374    -3.4559  1218.2549 H        378 DC      0.0000
    443 H5        -4.8007     1.8281  1218.7471 H        378 DC      0.0000
    444 H6        -5.6788    -0.3820  1218.2439 H        378 DC      0.0000
    445 H41       -1.2057     2.2791  1219.5018 H        378 DC      0.0000
    446 H42       -2.7446     3.0894  1219.3139 H        378 DC      0.0000
    447 P         -6.7220    -6.5310  1218.6939 P.3      379 DA      0.0000
    448 OP1       -6.7165    -7.8234  1217.9002 O.co2    379 DA      0.0000
    449 OP2       -8.0946    -6.1084  1219.0395 O.co2    379 DA      0.0000
    450 O5'       -5.7107    -6.5859  1219.9909 O.3      379 DA      0.0000
    451 C5'       -4.2911    -6.7609  1219.6957 C.3      379 DA      0.0000
    452 C4'       -3.4846    -6.6924  1220.9510 C.3      379 DA      0.0000
    453 O4'       -2.8441    -5.4361  1221.1931 O.3      379 DA      0.0000
    454 C3'       -4.2670    -6.9144  1222.2562 C.3      379 DA      0.0000
    455 O3'       -3.3424    -7.2716  1223.2862 O.3      379 DA      0.0000
    456 C2'       -4.8046    -5.4854  1222.4708 C.3      379 DA      0.0000
    457 C1'       -3.4643    -4.7654  1222.2876 C.3      379 DA      0.0000
    458 N9        -3.6988    -3.3344  1222.1932 N.ar     379 DA      0.0000
    459 C8        -4.8643    -2.6287  1222.0774 C.ar     379 DA      0.0000
    460 N7        -4.7218    -1.3155  1222.0588 N.ar     379 DA      0.0000
    461 C5        -3.3488    -1.1449  1222.1663 C.ar     379 DA      0.0000
    462 C6        -2.5364     0.0152  1222.2009 C.ar     379 DA      0.0000
    463 N6        -2.9926     1.2519  1222.1156 N.pl3    379 DA      0.0000
    464 N1        -1.1937    -0.1947  1222.3334 N.ar     379 DA      0.0000
    465 C2        -0.6772    -1.4605  1222.4136 C.ar     379 DA      0.0000
    466 N3        -1.3730    -2.5947  1222.3838 N.ar     379 DA      0.0000
    467 C4        -2.7038    -2.3673  1222.2608 C.ar     379 DA      0.0000
    468 H5'       -4.1396    -7.7321  1219.2246 H        379 DA      0.0000
    469 H5''      -3.9650    -5.9750  1219.0144 H        379 DA      0.0000
    470 H4'       -2.7096    -7.4565  1220.8921 H        379 DA      0.0000
    471 H3'       -5.0663    -7.6467  1222.1426 H        379 DA      0.0000
    472 H2'       -5.5405    -5.1977  1221.7201 H        379 DA      0.0000
    473 H2''      -5.1930    -5.3533  1223.4807 H        379 DA      0.0000
    474 H1'       -2.8617    -4.9480  1223.1772 H        379 DA      0.0000
    475 H8        -5.8291    -3.1089  1222.0064 H        379 DA      0.0000
    476 H2         0.3950    -1.5465  1222.5101 H        379 DA      0.0000
    477 H61       -2.5946     2.1626  1222.2957 H        379 DA      0.0000
    478 H62       -3.9512     1.2968  1221.8009 H        379 DA      0.0000
    479 P         -2.7868    -8.7656  1223.4266 P.3      380 DC      0.0000
    480 OP1       -2.9423    -9.5698  1222.1815 O.co2    380 DC      0.0000
    481 OP2       -3.6003    -9.3005  1224.5695 O.co2    380 DC      0.0000
    482 O5'       -1.2409    -8.5543  1223.7098 O.3      380 DC      0.0000
    483 C5'       -0.2980    -8.3120  1222.6221 C.3      380 DC      0.0000
    484 C4'        0.7758    -7.4755  1223.3270 C.3      380 DC      0.0000
    485 O4'        0.1993    -6.2285  1223.6390 O.3      380 DC      0.0000
    486 C3'        1.2690    -8.0845  1224.6369 C.3      380 DC      0.0000
    487 O3'        2.7097    -8.1821  1224.7048 O.3      380 DC      0.0000
    488 C2'        0.6703    -7.1734  1225.7191 C.3      380 DC      0.0000
    489 C1'        0.6209    -5.8635  1225.0430 C.3      380 DC      0.0000
    490 N1        -0.3805    -4.8605  1225.3958 N.am     380 DC      0.0000
    491 C2         0.0679    -3.5412  1225.3689 C.2      380 DC      0.0000
    492 O2         1.2377    -3.2443  1225.1620 O.2      380 DC      0.0000
    493 N3        -0.8454    -2.5656  1225.6220 N.2      380 DC      0.0000
    494 C4        -2.1526    -2.8353  1225.8554 C.2      380 DC      0.0000
    495 N4        -2.9509    -1.7948  1226.0863 N.pl3    380 DC      0.0000
    496 C5        -2.6007    -4.1849  1225.8619 C.2      380 DC      0.0000
    497 C6        -1.6939    -5.1422  1225.6125 C.2      380 DC      0.0000
    498 H5'        0.1136    -9.2450  1222.2372 H        380 DC      0.0000
    499 H5''      -0.7697    -7.7399  1221.8230 H        380 DC      0.0000
    500 H4'        1.6205    -7.3272  1222.6543 H        380 DC      0.0000
    501 H3'        0.8437    -9.0825  1224.7428 H        380 DC      0.0000
    502 H2'       -0.3273    -7.5061  1226.0061 H        380 DC      0.0000
    503 H2''       1.3251    -7.1308  1226.5894 H        380 DC      0.0000
    504 H1'        1.6131    -5.4124  1225.0297 H        380 DC      0.0000
    505 H5        -3.6335    -4.4306  1226.0604 H        380 DC      0.0000
    506 H6        -2.0178    -6.1721  1225.5828 H        380 DC      0.0000
    507 H41       -2.5748    -0.8575  1226.0753 H        380 DC      0.0000
    508 H42       -3.9326    -1.9430  1226.2725 H        380 DC      0.0000
    509 P         -1.3478     8.3803  1227.6643 P.3      380 DG      0.0000
    510 OP1       -1.6494     9.8343  1227.8431 O.co2    380 DG      0.0000
    511 OP2       -2.1923     7.7250  1226.5795 O.co2    380 DG      0.0000
    512 O5'        0.2729     8.1807  1227.4571 O.3      380 DG      0.0000
    513 C5'        1.0692     7.6193  1228.5529 C.3      380 DG      0.0000
    514 C4'        2.1184     6.7092  1227.9186 C.3      380 DG      0.0000
    515 O4'        1.6745     5.3833  1227.8228 O.3      380 DG      0.0000
    516 C3'        2.5451     7.1215  1226.5123 C.3      380 DG      0.0000
    517 O3'        3.9575     6.9601  1226.2453 O.3      380 DG      0.0000
    518 C2'        1.6929     6.2109  1225.6100 C.3      380 DG      0.0000
    519 C1'        1.6716     4.9341  1226.4338 C.3      380 DG      0.0000
    520 N9         0.4572     4.1469  1226.1605 N.ar     380 DG      0.0000
    521 C8        -0.8295     4.6049  1226.0038 C.ar     380 DG      0.0000
    522 N7        -1.7062     3.6611  1225.7854 N.ar     380 DG      0.0000
    523 C5        -0.9487     2.4959  1225.8102 C.ar     380 DG      0.0000
    524 C6        -1.3188     1.1335  1225.6538 C.2      380 DG      0.0000
    525 O6        -2.4610     0.6948  1225.4569 O.2      380 DG      0.0000
    526 N1        -0.2714     0.2498  1225.7407 N.am     380 DG      0.0000
    527 C2         1.0056     0.6476  1225.9613 C.2      380 DG      0.0000
    528 N2         1.9146    -0.3214  1226.0247 N.pl3    380 DG      0.0000
    529 N3         1.4069     1.9149  1226.1191 N.2      380 DG      0.0000
    530 C4         0.3787     2.7814  1226.0358 C.ar     380 DG      0.0000
    531 H5'        1.5554     8.4197  1229.1107 H        380 DG      0.0000
    532 H5''       0.4287     7.0399  1229.2178 H        380 DG      0.0000
    533 H4'        3.0030     6.7220  1228.5553 H        380 DG      0.0000
    534 H3'        2.2639     8.1607  1226.3418 H        380 DG      0.0000
    535 H2'        0.6899     6.6130  1225.4673 H        380 DG      0.0000
    536 H2''       2.1843     6.0456  1224.6512 H        380 DG      0.0000
    537 H1'        2.5610     4.3383  1226.2286 H        380 DG      0.0000
    538 H8        -1.0921     5.6511  1226.0566 H        380 DG      0.0000
    539 H1        -0.4601    -0.7368  1225.6359 H        380 DG      0.0000
    540 H21        1.6345    -1.2849  1225.9096 H        380 DG      0.0000
    541 H22        2.8850    -0.0936  1226.1879 H        380 DG      0.0000
    542 P          4.3440     6.6477  1224.7218 P.3      379 DT      0.0000
    543 OP1        5.7129     7.1357  1224.3309 O.co2    379 DT      0.0000
    544 OP2        3.2814     7.4100  1224.0213 O.co2    379 DT      0.0000
    545 O5'        4.2708     5.0524  1224.5909 O.3      379 DT      0.0000
    546 C5'        5.5044     4.3118  1224.8585 C.3      379 DT      0.0000
    547 C4'        5.4501     3.0027  1224.1015 C.3      379 DT      0.0000
    548 O4'        4.1530     2.4343  1224.0742 O.3      379 DT      0.0000
    549 C3'        5.8729     3.1372  1222.6468 C.3      379 DT      0.0000
    550 O3'        6.6412     2.0192  1222.1517 O.3      379 DT      0.0000
    551 C2'        4.5516     3.2771  1221.9239 C.3      379 DT      0.0000
    552 C1'        3.7346     2.2589  1222.7020 C.3      379 DT      0.0000
    553 N1         2.3226     2.6440  1222.5507 N.am     379 DT      0.0000
    554 C2         1.3906     1.6167  1222.6575 C.2      379 DT      0.0000
    555 O2         1.7574     0.4619  1222.8472 O.2      379 DT      0.0000
    556 N3         0.0718     1.9555  1222.5373 N.am     379 DT      0.0000
    557 C4        -0.3255     3.2407  1222.3197 C.2      379 DT      0.0000
    558 O4        -1.5782     3.4594  1222.2222 O.2      379 DT      0.0000
    559 C5         0.6520     4.2710  1222.2134 C.2      379 DT      0.0000
    560 C7         0.2251     5.6925  1221.9844 C.3      379 DT      0.0000
    561 C6         1.9386     3.9344  1222.3351 C.2      379 DT      0.0000
    562 H5'        6.3631     4.8944  1224.5248 H        379 DT      0.0000
    563 H5''       5.5887     4.1140  1225.9271 H        379 DT      0.0000
    564 H4'        6.1226     2.2972  1224.5894 H        379 DT      0.0000
    565 H3'        6.4499     4.0537  1222.5228 H        379 DT      0.0000
    566 H2'        4.1421     4.2831  1222.0155 H        379 DT      0.0000
    567 H2''       4.6452     2.9864  1220.8775 H        379 DT      0.0000
    568 H1'        3.9158     1.2429  1222.3514 H        379 DT      0.0000
    569 H3        -0.6289     1.2319  1222.6120 H        379 DT      0.0000
    570 H6         2.6935     4.7031  1222.2610 H        379 DT      0.0000
    571 H71       -0.8617     5.7394  1221.9157 H        379 DT      0.0000
    572 H72        0.5634     6.3115  1222.8153 H        379 DT      0.0000
    573 H73        0.6640     6.0587  1221.0563 H        379 DT      0.0000
    574 P          7.9672     2.6442  1221.3733 P.3      378 DG      0.0000
    575 OP1        9.1772     2.7391  1222.2445 O.co2    378 DG      0.0000
    576 OP2        7.3880     3.9492  1220.9677 O.co2    378 DG      0.0000
    577 O5'        8.2369     1.4980  1220.2925 O.3      378 DG      0.0000
    578 C5'        8.8992     0.2794  1220.7159 C.3      378 DG      0.0000
    579 C4'        7.9720    -0.8435  1220.2682 C.3      378 DG      0.0000
    580 O4'        6.6307    -0.4884  1220.5389 O.3      378 DG      0.0000
    581 C3'        8.0650    -1.1825  1218.7805 C.3      378 DG      0.0000
    582 O3'        8.3670    -2.5505  1218.5719 O.3      378 DG      0.0000
    583 C2'        6.7425    -0.7095  1218.2038 C.3      378 DG      0.0000
    584 C1'        5.8114    -0.7959  1219.3899 C.3      378 DG      0.0000
    585 N9         4.7151     0.1686  1219.2663 N.ar     378 DG      0.0000
    586 C8         4.7912     1.5233  1219.1075 C.ar     378 DG      0.0000
    587 N7         3.6226     2.1119  1219.0294 N.ar     378 DG      0.0000
    588 C5         2.7096     1.0704  1219.1669 C.ar     378 DG      0.0000
    589 C6         1.2899     1.0505  1219.1764 C.2      378 DG      0.0000
    590 O6         0.5350     2.0125  1219.0773 O.2      378 DG      0.0000
    591 N1         0.7399    -0.1909  1219.3254 N.am     378 DG      0.0000
    592 C2         1.5112    -1.3201  1219.4582 C.2      378 DG      0.0000
    593 N2         0.8455    -2.4674  1219.5939 N.pl3    378 DG      0.0000
    594 N3         2.8471    -1.3709  1219.4625 N.2      378 DG      0.0000
    595 C4         3.3779    -0.1335  1219.3118 C.ar     378 DG      0.0000
    596 H5'        9.8740     0.1860  1220.2372 H        378 DG      0.0000
    597 H5''       9.0093     0.2675  1221.8003 H        378 DG      0.0000
    598 H4'        8.2135    -1.7387  1220.8412 H        378 DG      0.0000
    599 H3'        8.8638    -0.5845  1218.3419 H        378 DG      0.0000
    600 H2'        6.8177     0.3143  1217.8374 H        378 DG      0.0000
    601 H2''       6.4115    -1.3771  1217.4082 H        378 DG      0.0000
    602 H1'        5.4112    -1.8061  1219.4769 H        378 DG      0.0000
    603 H8         5.7271     2.0594  1219.0514 H        378 DG      0.0000
    604 H1        -0.2659    -0.2816  1219.3382 H        378 DG      0.0000
    605 H21       -0.1645    -2.4682  1219.5949 H        378 DG      0.0000
    606 H22        1.3513    -3.3356  1219.6957 H        378 DG      0.0000
    607 P          7.7417    -3.7149  1217.7056 P.3      377 DA      0.0000
    608 OP1        7.7815    -5.0343  1218.4870 O.co2    377 DA      0.0000
    609 OP2        8.5875    -3.8009  1216.5129 O.co2    377 DA      0.0000
    610 O5'        6.1626    -3.3541  1217.5309 O.3      377 DA      0.0000
    611 C5'        5.3683    -3.8156  1218.6873 C.3      377 DA      0.0000
    612 C4'        4.3947    -4.8401  1218.1595 C.3      377 DA      0.0000
    613 O4'        3.1159    -4.3020  1217.9372 O.3      377 DA      0.0000
    614 C3'        4.8242    -5.4350  1216.8190 C.3      377 DA      0.0000
    615 O3'        4.5928    -6.8214  1216.7438 O.3      377 DA      0.0000
    616 C2'        4.1045    -4.5441  1215.8224 C.3      377 DA      0.0000
    617 C1'        2.9215    -3.9644  1216.5463 C.3      377 DA      0.0000
    618 N9         2.8035    -2.5136  1216.3208 N.ar     377 DA      0.0000
    619 C8         3.8018    -1.5820  1216.1344 C.ar     377 DA      0.0000
    620 N7         3.3700    -0.3574  1215.9385 N.ar     377 DA      0.0000
    621 C5         1.9898    -0.4893  1216.0254 C.ar     377 DA      0.0000
    622 C6         0.9503     0.4641  1215.9197 C.ar     377 DA      0.0000
    623 N6         1.1527     1.7525  1215.7073 N.pl3    377 DA      0.0000
    624 N1        -0.3178    -0.0166  1216.0435 N.ar     377 DA      0.0000
    625 C2        -0.5567    -1.3424  1216.2680 C.ar     377 DA      0.0000
    626 N3         0.3736    -2.2878  1216.3839 N.ar     377 DA      0.0000
    627 C4         1.6296    -1.7980  1216.2477 C.ar     377 DA      0.0000
    628 H5'        6.0202    -4.2667  1219.4354 H        377 DA      0.0000
    629 H5''       4.8255    -2.9772  1219.1240 H        377 DA      0.0000
    630 H4'        4.3107    -5.6473  1218.8872 H        377 DA      0.0000
    631 H3'        5.8953    -5.2674  1216.7059 H        377 DA      0.0000
    632 H2'        3.7717    -5.1298  1214.9656 H        377 DA      0.0000
    633 H2''       4.7672    -3.7443  1215.4919 H        377 DA      0.0000
    634 H1'        2.0150    -4.4521  1216.1881 H        377 DA      0.0000
    635 H8         4.8511    -1.8375  1216.1483 H        377 DA      0.0000
    636 H2        -1.5879    -1.6501  1216.3592 H        377 DA      0.0000
    637 H61        0.4883     2.4448  1216.0227 H        377 DA      0.0000
    638 H62        1.9864     2.0502  1215.2210 H        377 DA      0.0000
    639 P          4.0818    -7.7338  1215.5592 P.3      376 DA      0.0000
    640 OP1        3.7400    -9.1606  1216.0791 O.co2    376 DA      0.0000
    641 OP2        5.2475    -7.8229  1214.6255 O.co2    376 DA      0.0000
    642 O5'        2.7157    -7.1312  1215.0565 O.3      376 DA      0.0000
    643 C5'        1.4684    -7.6947  1215.5124 C.3      376 DA      0.0000
    644 C4'        0.3602    -6.9404  1214.8104 C.3      376 DA      0.0000
    645 O4'        0.5870    -5.5650  1214.6897 O.3      376 DA      0.0000
    646 C3'        0.0674    -7.4581  1213.4029 C.3      376 DA      0.0000
    647 O3'       -1.2483    -8.0427  1213.3715 O.3      376 DA      0.0000
    648 C2'        0.3497    -6.2534  1212.5034 C.3      376 DA      0.0000
    649 C1'        0.0795    -5.0843  1213.4011 C.3      376 DA      0.0000
    650 N9         0.8026    -3.8527  1213.1015 N.ar     376 DA      0.0000
    651 C8         2.1546    -3.6593  1212.9068 C.ar     376 DA      0.0000
    652 N7         2.4865    -2.4042  1212.7014 N.ar     376 DA      0.0000
    653 C5         1.2881    -1.7213  1212.7759 C.ar     376 DA      0.0000
    654 C6         0.9737    -0.3503  1212.6424 C.ar     376 DA      0.0000
    655 N6         1.8755     0.5960  1212.3992 N.pl3    376 DA      0.0000
    656 N1        -0.3538    -0.0382  1212.7912 N.ar     376 DA      0.0000
    657 C2        -1.2889    -0.9742  1213.0438 C.ar     376 DA      0.0000
    658 N3        -1.0663    -2.2847  1213.1826 N.ar     376 DA      0.0000
    659 C4         0.2424    -2.5890  1213.0354 C.ar     376 DA      0.0000
    660 H5'        1.4204    -8.7533  1215.2572 H        376 DA      0.0000
    661 H5''       1.3769    -7.5689  1216.5912 H        376 DA      0.0000
    662 H4'       -0.5469    -7.0704  1215.4006 H        376 DA      0.0000
    663 H3'        0.7927    -8.2371  1213.1679 H        376 DA      0.0000
    664 H2'        1.3854    -6.2538  1212.1635 H        376 DA      0.0000
    665 H2''      -0.3309    -6.2457  1211.6520 H        376 DA      0.0000
    666 H1'       -0.9916    -4.8912  1213.4622 H        376 DA      0.0000
    667 H8         2.8739    -4.4647  1212.9218 H        376 DA      0.0000
    668 H2        -2.3096    -0.6355  1213.1428 H        376 DA      0.0000
    669 H61        1.6148     1.5264  1212.6932 H        376 DA      0.0000
    670 H62        2.7592     0.3983  1211.9519 H        376 DA      0.0000
    671 P         -1.7981    -8.6523  1211.9865 P.3      375 DT      0.0000
    672 OP1       -3.0130    -9.5262  1212.0446 O.co2    375 DT      0.0000
    673 OP2       -0.5582    -9.3118  1211.4739 O.co2    375 DT      0.0000
    674 O5'       -2.2849    -7.2218  1211.2834 O.3      375 DT      0.0000
    675 C5'       -2.9363    -6.3962  1212.2957 C.3      375 DT      0.0000
    676 C4'       -3.8283    -5.4094  1211.6127 C.3      375 DT      0.0000
    677 O4'       -3.2395    -4.1562  1211.4323 O.3      375 DT      0.0000
    678 C3'       -4.3320    -5.8637  1210.2515 C.3      375 DT      0.0000
    679 O3'       -5.6792    -5.4555  1209.9842 O.3      375 DT      0.0000
    680 C2'       -3.2650    -5.2175  1209.3581 C.3      375 DT      0.0000
    681 C1'       -3.1143    -3.8540  1209.9982 C.3      375 DT      0.0000
    682 N1        -1.7663    -3.3011  1209.7682 N.am     375 DT      0.0000
    683 C2        -1.6511    -1.9275  1209.6466 C.2      375 DT      0.0000
    684 O2        -2.6442    -1.1993  1209.6833 O.2      375 DT      0.0000
    685 N3        -0.3993    -1.4005  1209.4792 N.am     375 DT      0.0000
    686 C4         0.7107    -2.1848  1209.4306 C.2      375 DT      0.0000
    687 O4         1.8266    -1.6136  1209.2451 O.2      375 DT      0.0000
    688 C5         0.5725    -3.5933  1209.5790 C.2      375 DT      0.0000
    689 C7         1.7825    -4.4954  1209.5269 C.3      375 DT      0.0000
    690 C6        -0.6561    -4.0919  1209.7520 C.2      375 DT      0.0000
    691 H5'       -3.5284    -7.0280  1212.9578 H        375 DT      0.0000
    692 H5''      -2.1811    -5.8658  1212.8757 H        375 DT      0.0000
    693 H4'       -4.7014    -5.2678  1212.2498 H        375 DT      0.0000
    694 H3'       -4.2589    -6.9488  1210.1795 H        375 DT      0.0000
    695 H2'       -2.3297    -5.7763  1209.3887 H        375 DT      0.0000
    696 H2''      -3.6250    -5.1246  1208.3335 H        375 DT      0.0000
    697 H1'       -3.8916    -3.1666  1209.6642 H        375 DT      0.0000
    698 H3        -0.2968    -0.3997  1209.3890 H        375 DT      0.0000
    699 H6        -0.7728    -5.1576  1209.8834 H        375 DT      0.0000
    700 H71        1.8894    -4.9031  1208.5217 H        375 DT      0.0000
    701 H72        1.6578    -5.3116  1210.2385 H        375 DT      0.0000
    702 H73        2.6739    -3.9228  1209.7834 H        375 DT      0.0000
    703 P         -6.2463    -5.8201  1208.4943 P.3      374 DT      0.0000
    704 OP1       -7.3728    -6.8445  1208.6423 O.co2    374 DT      0.0000
    705 OP2       -5.0649    -6.4612  1207.8244 O.co2    374 DT      0.0000
    706 O5'       -6.7346    -4.5014  1207.8422 O.3      374 DT      0.0000
    707 C5'       -7.2484    -3.4016  1208.5936 C.3      374 DT      0.0000
    708 C4'       -6.9487    -2.1422  1207.8456 C.3      374 DT      0.0000
    709 O4'       -5.6198    -1.6988  1207.7886 O.3      374 DT      0.0000
    710 C3'       -7.4252    -2.0538  1206.3796 C.3      374 DT      0.0000
    711 O3'       -7.7628    -0.6673  1206.2758 O.3      374 DT      0.0000
    712 C2'       -6.1381    -2.3923  1205.6158 C.3      374 DT      0.0000
    713 C1'       -5.2147    -1.4754  1206.3916 C.3      374 DT      0.0000
    714 N1        -3.7829    -1.7706  1206.2854 N.am     374 DT      0.0000
    715 C2        -2.9376    -0.6529  1206.2848 C.2      374 DT      0.0000
    716 O2        -3.3953     0.4910  1206.3278 O.2      374 DT      0.0000
    717 N3        -1.5942    -0.8904  1206.2313 N.am     374 DT      0.0000
    718 C4        -1.0688    -2.1469  1206.1716 C.2      374 DT      0.0000
    719 O4         0.1922    -2.2627  1206.1092 O.2      374 DT      0.0000
    720 C5        -1.9492    -3.2630  1206.1798 C.2      374 DT      0.0000
    721 C7        -1.3790    -4.6647  1206.1184 C.3      374 DT      0.0000
    722 C6        -3.2625    -3.0260  1206.2463 C.2      374 DT      0.0000
    723 H5'       -8.3261    -3.5100  1208.7158 H        374 DT      0.0000
    724 H5''      -6.7694    -3.3701  1209.5722 H        374 DT      0.0000
    725 H4'       -7.4917    -1.3578  1208.3729 H        374 DT      0.0000
    726 H3'       -8.2554    -2.7222  1206.1509 H        374 DT      0.0000
    727 H2'       -6.1981    -2.1271  1204.5603 H        374 DT      0.0000
    728 H2''      -5.8616    -3.4383  1205.7474 H        374 DT      0.0000
    729 H1'       -5.4013    -0.4383  1206.1125 H        374 DT      0.0000
    730 H3        -0.9631    -0.1019  1206.2362 H        374 DT      0.0000
    731 H6        -3.9392    -3.8673  1206.2700 H        374 DT      0.0000
    732 H71       -0.2913    -4.6133  1206.0696 H        374 DT      0.0000
    733 H72       -1.7587    -5.1726  1205.2318 H        374 DT      0.0000
    734 H73       -1.6769    -5.2175  1207.0093 H        374 DT      0.0000
    735 P         -8.5580     0.0141  1205.1296 P.3      373 DC      0.0000
    736 OP1       -9.6550     0.8891  1205.7387 O.co2    373 DC      0.0000
    737 OP2       -9.1799    -1.1001  1204.3477 O.co2    373 DC      0.0000
    738 O5'       -7.3792     0.8614  1204.3902 O.3      373 DC      0.0000
    739 C5'       -6.9273     2.0523  1205.1147 C.3      373 DC      0.0000
    740 C4'       -6.5652     3.0698  1204.0642 C.3      373 DC      0.0000
    741 O4'       -5.1788     3.1133  1203.8189 O.3      373 DC      0.0000
    742 C3'       -7.2245     2.8615  1202.6997 C.3      373 DC      0.0000
    743 O3'       -7.5205     4.0666  1201.9905 O.3      373 DC      0.0000
    744 C2'       -6.1826     1.9674  1202.0136 C.3      373 DC      0.0000
    745 C1'       -4.8664     2.5169  1202.5602 C.3      373 DC      0.0000
    746 N1        -3.9141     1.3877  1202.6780 N.am     373 DC      0.0000
    747 C2        -2.5562     1.7032  1202.6953 C.2      373 DC      0.0000
    748 O2        -2.1708     2.8784  1202.6266 O.2      373 DC      0.0000
    749 N3        -1.6728     0.6629  1202.7985 N.2      373 DC      0.0000
    750 C4        -2.0844    -0.6300  1202.8692 C.2      373 DC      0.0000
    751 N4        -1.1840    -1.6101  1202.9712 N.pl3    373 DC      0.0000
    752 C5        -3.4762    -0.9245  1202.8441 C.2      373 DC      0.0000
    753 C6        -4.3434     0.0981  1202.7505 C.2      373 DC      0.0000
    754 H5'       -7.7262     2.4336  1205.7507 H        373 DC      0.0000
    755 H5''      -6.0522     1.8120  1205.7186 H        373 DC      0.0000
    756 H4'       -6.8680     4.0498  1204.4329 H        373 DC      0.0000
    757 H3'       -8.1453     2.2940  1202.8339 H        373 DC      0.0000
    758 H2'       -6.2310     2.0666  1200.9292 H        373 DC      0.0000
    759 H2''      -6.3159     0.9268  1202.3096 H        373 DC      0.0000
    760 H1'       -4.4675     3.2702  1201.8808 H        373 DC      0.0000
    761 H5        -3.8271    -1.9444  1202.8989 H        373 DC      0.0000
    762 H6        -5.4034    -0.1079  1202.7324 H        373 DC      0.0000
    763 H41       -0.1984    -1.3904  1202.9919 H        373 DC      0.0000
    764 H42       -1.4882    -2.5716  1203.0275 H        373 DC      0.0000
    765 P         -7.4171     4.2763  1200.3585 P.3      372 DA      0.0000
    766 OP1       -8.3224     5.4249  1199.9690 O.co2    372 DA      0.0000
    767 OP2       -7.8020     2.9566  1199.7884 O.co2    372 DA      0.0000
    768 O5'       -5.9039     4.7574  1200.1929 O.3      372 DA      0.0000
    769 C5'       -5.5562     6.1191  1200.6584 C.3      372 DA      0.0000
    770 C4'       -4.3610     6.4505  1199.7811 C.3      372 DA      0.0000
    771 O4'       -3.2943     5.5312  1200.0484 O.3      372 DA      0.0000
    772 C3'       -4.6435     6.2901  1198.2767 C.3      372 DA      0.0000
    773 O3'       -3.6670     6.9509  1197.4876 O.3      372 DA      0.0000
    774 C2'       -4.3673     4.7870  1198.0892 C.3      372 DA      0.0000
    775 C1'       -3.0099     4.8071  1198.8439 C.3      372 DA      0.0000
    776 N9        -2.6521     3.3998  1198.9893 N.ar     372 DA      0.0000
    777 C8        -3.5243     2.3367  1199.0621 C.ar     372 DA      0.0000
    778 N7        -2.9237     1.1788  1199.1768 N.ar     372 DA      0.0000
    779 C5        -1.5579     1.5140  1199.1704 C.ar     372 DA      0.0000
    780 C6        -0.3976     0.6980  1199.2703 C.ar     372 DA      0.0000
    781 N6        -0.4327    -0.6320  1199.3932 N.pl3    372 DA      0.0000
    782 N1         0.7784     1.3850  1199.2352 N.ar     372 DA      0.0000
    783 C2         0.8145     2.7349  1199.1163 C.ar     372 DA      0.0000
    784 N3        -0.2324     3.5601  1199.0248 N.ar     372 DA      0.0000
    785 C4        -1.3867     2.8711  1199.0524 C.ar     372 DA      0.0000
    786 H5'       -6.3765     6.8171  1200.4916 H        372 DA      0.0000
    787 H5''      -5.2699     6.1052  1201.7100 H        372 DA      0.0000
    788 H4'       -4.0276     7.4681  1199.9850 H        372 DA      0.0000
    789 H3'       -5.6623     6.5684  1198.0070 H        372 DA      0.0000
    790 H2'       -5.1126     4.1540  1198.5708 H        372 DA      0.0000
    791 H2''      -4.2395     4.5293  1197.0378 H        372 DA      0.0000
    792 H1'       -2.2566     5.3309  1198.2554 H        372 DA      0.0000
    793 H8        -4.5981     2.4472  1199.0281 H        372 DA      0.0000
    794 H2         1.7928     3.1916  1199.0931 H        372 DA      0.0000
    795 H61       -1.3201    -1.1136  1199.4179 H        372 DA      0.0000
    796 H62        0.4282    -1.1557  1199.4613 H        372 DA      0.0000
    797 P         -4.0977     7.9679  1196.3467 P.3      371 DC      0.0000
    798 OP1       -4.3100     9.2547  1197.1270 O.co2    371 DC      0.0000
    799 OP2       -5.2956     7.5305  1195.6211 O.co2    371 DC      0.0000
    800 O5'       -2.7755     7.9058  1195.3708 O.3      371 DC      0.0000
    801 C5'       -1.4766     8.1340  1196.0399 C.3      371 DC      0.0000
    802 C4'       -0.4449     7.2461  1195.3958 C.3      371 DC      0.0000
    803 O4'       -0.2972     5.9830  1196.0330 O.3      371 DC      0.0000
    804 C3'       -0.7504     6.9478  1193.9180 C.3      371 DC      0.0000
    805 O3'        0.4085     6.8024  1193.1067 O.3      371 DC      0.0000
    806 C2'       -1.4363     5.5522  1194.0837 C.3      371 DC      0.0000
    807 C1'       -0.2679     4.9976  1194.9792 C.3      371 DC      0.0000
    808 N1        -0.5450     3.6051  1195.2171 N.am     371 DC      0.0000
    809 C2         0.5112     2.7664  1195.5343 C.2      371 DC      0.0000
    810 O2         1.7115     3.0264  1195.6747 O.2      371 DC      0.0000
    811 N3         0.2406     1.4408  1195.7325 N.2      371 DC      0.0000
    812 C4        -1.0247     0.9345  1195.6165 C.2      371 DC      0.0000
    813 N4        -1.2438    -0.3720  1195.8326 N.pl3    371 DC      0.0000
    814 C5        -2.0981     1.8073  1195.2869 C.2      371 DC      0.0000
    815 C6        -1.8083     3.0995  1195.0952 C.2      371 DC      0.0000
    816 H5'       -1.1841     9.1781  1195.9284 H        371 DC      0.0000
    817 H5''      -1.5618     7.8885  1197.0985 H        371 DC      0.0000
    818 H4'        0.5155     7.7594  1195.4426 H        371 DC      0.0000
    819 H3'       -1.4390     7.6815  1193.4990 H        371 DC      0.0000
    820 H2'       -2.3947     5.5985  1194.6008 H        371 DC      0.0000
    821 H2''      -1.5105     5.0197  1193.1354 H        371 DC      0.0000
    822 H1'        0.6719     5.0861  1194.4343 H        371 DC      0.0000
    823 H5        -3.1099     1.4407  1195.1947 H        371 DC      0.0000
    824 H6        -2.6099     3.7737  1194.8319 H        371 DC      0.0000
    825 H41       -0.4742    -0.9801  1196.0731 H        371 DC      0.0000
    826 H42       -2.1784    -0.7469  1195.7547 H        371 DC      0.0000
    827 P          4.9925    -8.6866  1229.7059 P.3      381 DG      0.0000
    828 OP1        5.0312   -10.1698  1229.7043 O.co2    381 DG      0.0000
    829 OP2        3.9574    -8.2714  1230.7616 O.co2    381 DG      0.0000
    830 O5'        6.3816    -7.9315  1229.8843 O.3      381 DG      0.0000
    831 C5'        7.2030    -7.2922  1228.8843 C.3      381 DG      0.0000
    832 C4'        7.5610    -5.9077  1229.3831 C.3      381 DG      0.0000
    833 O4'        6.6284    -4.9350  1228.9639 O.3      381 DG      0.0000
    834 C3'        7.7435    -5.7173  1230.8753 C.3      381 DG      0.0000
    835 O3'        9.0346    -5.1280  1231.1873 O.3      381 DG      0.0000
    836 C2'        6.5711    -4.8522  1231.2972 C.3      381 DG      0.0000
    837 C1'        6.2237    -4.0897  1230.0415 C.3      381 DG      0.0000
    838 N9         4.7795    -3.7952  1230.0125 N.ar     381 DG      0.0000
    839 C8         3.7138    -4.6331  1230.2413 C.ar     381 DG      0.0000
    840 N7         2.5413    -4.0469  1230.1516 N.ar     381 DG      0.0000
    841 C5         2.8541    -2.7276  1229.8346 C.ar     381 DG      0.0000
    842 C6         2.0375    -1.5922  1229.6087 C.2      381 DG      0.0000
    843 O6         0.8084    -1.5207  1229.6300 O.2      381 DG      0.0000
    844 N1         2.7126    -0.4361  1229.3272 N.am     381 DG      0.0000
    845 C2         4.0041    -0.3694  1229.2665 C.2      381 DG      0.0000
    846 N2         4.3761     0.8149  1228.9698 N.pl3    381 DG      0.0000
    847 N3         4.8922    -1.4293  1229.4753 N.2      381 DG      0.0000
    848 C4         4.2234    -2.5589  1229.7478 C.ar     381 DG      0.0000
    849 H5'        8.1112    -7.8737  1228.7256 H        381 DG      0.0000
    850 H5''       6.6489    -7.2138  1227.9489 H        381 DG      0.0000
    851 H4'        8.5117    -5.6467  1228.9184 H        381 DG      0.0000
    852 H3'        7.6663    -6.6859  1231.3692 H        381 DG      0.0000
    853 H2'        5.7321    -5.4664  1231.6241 H        381 DG      0.0000
    854 H2''       6.8707    -4.1653  1232.0886 H        381 DG      0.0000
    855 H1'        6.7889    -3.1582  1230.0096 H        381 DG      0.0000
    856 H8         3.8302    -5.6813  1230.4744 H        381 DG      0.0000
    857 H1         2.1785     0.4045  1229.1588 H        381 DG      0.0000
    858 H21        3.6873     1.5394  1228.8254 H        381 DG      0.0000
    859 H22        5.3593     1.0277  1228.8793 H        381 DG      0.0000
    860 P          9.3882    -4.5564  1232.6158 P.3      382 DT      0.0000
    861 OP1       10.7751    -4.8481  1233.1275 O.co2    382 DT      0.0000
    862 OP2        8.4543    -5.3650  1233.5345 O.co2    382 DT      0.0000
    863 O5'        8.9638    -3.0658  1232.6444 O.3      382 DT      0.0000
    864 C5'        9.9068    -1.9683  1232.5004 C.3      382 DT      0.0000
    865 C4'        9.0513    -0.7200  1232.5579 C.3      382 DT      0.0000
    866 O4'        7.6944    -0.9906  1232.2828 O.3      382 DT      0.0000
    867 C3'        9.0346     0.0215  1233.8706 C.3      382 DT      0.0000
    868 O3'        9.6392     1.3095  1233.6824 O.3      382 DT      0.0000
    869 C2'        7.5623     0.1439  1234.2629 C.3      382 DT      0.0000
    870 C1'        6.9042     0.0611  1232.9101 C.3      382 DT      0.0000
    871 N1         5.5279    -0.4254  1233.0067 N.am     382 DT      0.0000
    872 C2         4.5231     0.4824  1232.8088 C.2      382 DT      0.0000
    873 O2         4.7423     1.6679  1232.5706 O.2      382 DT      0.0000
    874 N3         3.2380     0.0176  1232.8899 N.am     382 DT      0.0000
    875 C4         2.9391    -1.2761  1233.1458 C.2      382 DT      0.0000
    876 O4         1.7122    -1.5541  1233.1911 O.2      382 DT      0.0000
    877 C5         4.0040    -2.2124  1233.3455 C.2      382 DT      0.0000
    878 C7         3.7165    -3.6517  1233.6254 C.3      382 DT      0.0000
    879 C6         5.2578    -1.7489  1233.2640 C.2      382 DT      0.0000
    880 H5'       10.6323    -1.9753  1233.3138 H        382 DT      0.0000
    881 H5''      10.4168    -2.0325  1231.5392 H        382 DT      0.0000
    882 H4'        9.4145    -0.0333  1231.7934 H        382 DT      0.0000
    883 H3'        9.5795    -0.5423  1234.6277 H        382 DT      0.0000
    884 H2'        7.2505    -0.6747  1234.9117 H        382 DT      0.0000
    885 H2''       7.3647     1.1077  1234.7321 H        382 DT      0.0000
    886 H1'        6.9687     1.0027  1232.3648 H        382 DT      0.0000
    887 H3         2.4794     0.6700  1232.7524 H        382 DT      0.0000
    888 H6         6.0805    -2.4345  1233.4044 H        382 DT      0.0000
    889 H71        3.8753    -4.2372  1232.7198 H        382 DT      0.0000
    890 H72        2.6816    -3.7587  1233.9501 H        382 DT      0.0000
    891 H73        4.3826    -4.0092  1234.4107 H        382 DT      0.0000
    892 P         10.5191     1.7927  1234.9624 P.3      383 DG      0.0000
    893 OP1       11.6585     2.5076  1234.2473 O.co2    383 DG      0.0000
    894 OP2       10.9352     0.6234  1235.7159 O.co2    383 DG      0.0000
    895 O5'        9.3837     2.7946  1235.5719 O.3      383 DG      0.0000
    896 C5'        8.8216     3.6180  1234.4813 C.3      383 DG      0.0000
    897 C4'        7.5754     4.2719  1235.0013 C.3      383 DG      0.0000
    898 O4'        6.3760     3.5674  1234.8208 O.3      383 DG      0.0000
    899 C3'        7.6695     4.6102  1236.5094 C.3      383 DG      0.0000
    900 O3'        7.3771     6.0196  1236.6682 O.3      383 DG      0.0000
    901 C2'        6.7034     3.6446  1237.1619 C.3      383 DG      0.0000
    902 C1'        5.6405     3.4902  1236.0804 C.3      383 DG      0.0000
    903 N9         4.8828     2.2453  1236.2499 N.ar     383 DG      0.0000
    904 C8         5.3435     1.0023  1236.5861 C.ar     383 DG      0.0000
    905 N7         4.4129     0.0775  1236.6719 N.ar     383 DG      0.0000
    906 C5         3.2515     0.7723  1236.3419 C.ar     383 DG      0.0000
    907 C6         1.8994     0.3348  1236.2475 C.2      383 DG      0.0000
    908 O6         1.4474    -0.8038  1236.4398 O.2      383 DG      0.0000
    909 N1         1.0036     1.3242  1235.9125 N.am     383 DG      0.0000
    910 C2         1.3983     2.6080  1235.6887 C.2      383 DG      0.0000
    911 N2         0.3914     3.4356  1235.3799 N.pl3    383 DG      0.0000
    912 N3         2.6468     3.0642  1235.7597 N.2      383 DG      0.0000
    913 C4         3.5235     2.0992  1236.0863 C.ar     383 DG      0.0000
    914 H5'        9.5423     4.3784  1234.1808 H        383 DG      0.0000
    915 H5''       8.5772     2.9841  1233.6289 H        383 DG      0.0000
    916 H4'        7.4695     5.2182  1234.4708 H        383 DG      0.0000
    917 H3'        8.6800     4.4073  1236.8641 H        383 DG      0.0000
    918 H2'        7.1840     2.6920  1237.3849 H        383 DG      0.0000
    919 H2''       6.2742     4.0800  1238.0644 H        383 DG      0.0000
    920 H1'        4.9521     4.3332  1236.1393 H        383 DG      0.0000
    921 H8         6.3883     0.7968  1236.7668 H        383 DG      0.0000
    922 H1         0.0242     1.0913  1235.8301 H        383 DG      0.0000
    923 H21       -0.5541     3.0839  1235.3297 H        383 DG      0.0000
    924 H22        0.5776     4.4114  1235.1972 H        383 DG      0.0000
    925 P          7.4948     6.7283  1238.0567 P.3      384 DA      0.0000
    926 OP1        8.8295     7.2987  1238.4120 O.co2    384 DA      0.0000
    927 OP2        7.2697     5.4551  1238.9524 O.co2    384 DA      0.0000
    928 O5'        6.1968     7.6046  1238.3058 O.3      384 DA      0.0000
    929 C5'        5.3340     8.1109  1237.2767 C.3      384 DA      0.0000
    930 C4'        3.9224     7.8057  1237.7510 C.3      384 DA      0.0000
    931 O4'        3.6620     6.4213  1237.6607 O.3      384 DA      0.0000
    932 C3'        3.5825     8.2292  1239.1801 C.3      384 DA      0.0000
    933 O3'        2.3177     8.9210  1239.2324 O.3      384 DA      0.0000
    934 C2'        3.5602     6.8836  1239.9155 C.3      384 DA      0.0000
    935 C1'        2.9098     6.0294  1238.8379 C.3      384 DA      0.0000
    936 N9         3.0431     4.5871  1239.0664 N.ar     384 DA      0.0000
    937 C8         4.1608     3.8318  1239.2821 C.ar     384 DA      0.0000
    938 N7         3.9147     2.5512  1239.4471 N.ar     384 DA      0.0000
    939 C5         2.5383     2.4563  1239.3069 C.ar     384 DA      0.0000
    940 C6         1.6672     1.3459  1239.3548 C.ar     384 DA      0.0000
    941 N6         2.0584     0.0885  1239.5746 N.pl3    384 DA      0.0000
    942 N1         0.3453     1.6341  1239.1650 N.ar     384 DA      0.0000
    943 C2        -0.0731     2.9023  1238.9473 C.ar     384 DA      0.0000
    944 N3         0.6879     3.9946  1238.8890 N.ar     384 DA      0.0000
    945 C4         1.9856     3.6922  1239.0759 C.ar     384 DA      0.0000
    946 H5'        5.5350     7.6104  1236.3295 H        384 DA      0.0000
    947 H5''       5.4695     9.1871  1237.1689 H        384 DA      0.0000
    948 H4'        3.2307     8.3167  1237.0812 H        384 DA      0.0000
    949 H3'        4.3733     8.8628  1239.5815 H        384 DA      0.0000
    950 H2'        4.5638     6.5362  1240.1610 H        384 DA      0.0000
    951 H2''       2.9342     6.9343  1240.8064 H        384 DA      0.0000
    952 H1'        1.8599     6.2990  1238.7234 H        384 DA      0.0000
    953 H8         5.1564     4.2492  1239.3142 H        384 DA      0.0000
    954 H2        -1.1344     3.0441  1238.8059 H        384 DA      0.0000
    955 H61        3.0055    -0.2485  1239.4772 H        384 DA      0.0000
    956 H62        1.3975    -0.6558  1239.4031 H        384 DA      0.0000
    957 P          1.9818    10.0534  1240.3738 P.3      385 DA      0.0000
    958 OP1        1.7212    11.3811  1239.7068 O.co2    385 DA      0.0000
    959 OP2        3.2014     9.9908  1241.2047 O.co2    385 DA      0.0000
    960 O5'        0.5497     9.5927  1240.9047 O.3      385 DA      0.0000
    961 C5'       -0.6126     9.5237  1240.0803 C.3      385 DA      0.0000
    962 C4'       -1.4958     8.4041  1240.6026 C.3      385 DA      0.0000
    963 O4'       -0.8075     7.1857  1240.6308 O.3      385 DA      0.0000
    964 C3'       -2.1298     8.5926  1241.9699 C.3      385 DA      0.0000
    965 O3'       -3.5542     8.6426  1241.8921 O.3      385 DA      0.0000
    966 C2'       -1.5624     7.4335  1242.7987 C.3      385 DA      0.0000
    967 C1'       -1.1952     6.4011  1241.8049 C.3      385 DA      0.0000
    968 N9        -0.0851     5.4689  1242.0729 N.ar     385 DA      0.0000
    969 C8         1.2626     5.7099  1242.1881 C.ar     385 DA      0.0000
    970 N7         1.9884     4.6301  1242.3574 N.ar     385 DA      0.0000
    971 C5         1.0582     3.5963  1242.3204 C.ar     385 DA      0.0000
    972 C6         1.2047     2.1849  1242.4409 C.ar     385 DA      0.0000
    973 N6         2.3504     1.5430  1242.6325 N.pl3    385 DA      0.0000
    974 N1         0.0448     1.4580  1242.3427 N.ar     385 DA      0.0000
    975 C2        -1.1534     2.0834  1242.1536 C.ar     385 DA      0.0000
    976 N3        -1.3601     3.3909  1242.0458 N.ar     385 DA      0.0000
    977 C4        -0.2120     4.0917  1242.1376 C.ar     385 DA      0.0000
    978 H5'       -0.3230     9.3155  1239.0503 H        385 DA      0.0000
    979 H5''      -1.1525    10.4694  1240.1263 H        385 DA      0.0000
    980 H4'       -2.3124     8.2883  1239.8899 H        385 DA      0.0000
    981 H3'       -1.7714     9.5310  1242.3931 H        385 DA      0.0000
    982 H2'       -0.6848     7.7561  1243.3590 H        385 DA      0.0000
    983 H2''      -2.3228     7.0488  1243.4783 H        385 DA      0.0000
    984 H1'       -2.0851     5.8218  1241.5588 H        385 DA      0.0000
    985 H8         1.6875     6.7017  1242.1433 H        385 DA      0.0000
    986 H2        -2.0245     1.4487  1242.0844 H        385 DA      0.0000
    987 H61        3.1832     2.0124  1242.9587 H        385 DA      0.0000
    988 H62        2.3910     0.5513  1242.4457 H        385 DA      0.0000
    989 P         -4.5224     9.5329  1242.8483 P.3      386 DT      0.0000
    990 OP1       -5.6405    10.1949  1242.0510 O.co2    386 DT      0.0000
    991 OP2       -3.7417    10.4349  1243.6689 O.co2    386 DT      0.0000
    992 O5'       -5.3460     8.3647  1243.6620 O.3      386 DT      0.0000
    993 C5'       -5.6869     7.2623  1242.7169 C.3      386 DT      0.0000
    994 C4'       -5.4298     6.0028  1243.5047 C.3      386 DT      0.0000
    995 O4'       -4.0610     5.7243  1243.6966 O.3      386 DT      0.0000
    996 C3'       -6.0298     6.0696  1244.9213 C.3      386 DT      0.0000
    997 O3'       -7.2801     5.4057  1244.9229 O.3      386 DT      0.0000
    998 C2'       -4.9674     5.4397  1245.8185 C.3      386 DT      0.0000
    999 C1'       -4.0653     4.7795  1244.8539 C.3      386 DT      0.0000
   1000 N1        -2.6734     4.5305  1245.1936 N.am     386 DT      0.0000
   1001 C2        -2.2883     3.2006  1245.3316 C.2      386 DT      0.0000
   1002 O2        -3.1260     2.3121  1245.2436 O.2      386 DT      0.0000
   1003 N3        -0.9771     2.9328  1245.5856 N.am     386 DT      0.0000
   1004 C4        -0.0339     3.9129  1245.7057 C.2      386 DT      0.0000
   1005 O4         1.1681     3.5825  1245.9609 O.2      386 DT      0.0000
   1006 C5        -0.4497     5.2743  1245.5341 C.2      386 DT      0.0000
   1007 C7         0.5537     6.3907  1245.6217 C.3      386 DT      0.0000
   1008 C6        -1.7438     5.5328  1245.2784 C.2      386 DT      0.0000
   1009 H5'       -6.7326     7.3222  1242.4153 H        386 DT      0.0000
   1010 H5''      -5.0380     7.3002  1241.8419 H        386 DT      0.0000
   1011 H4'       -5.8831     5.1646  1242.9755 H        386 DT      0.0000
   1012 H3'       -6.1726     7.1122  1245.2056 H        386 DT      0.0000
   1013 H2'       -4.4381     6.2006  1246.3919 H        386 DT      0.0000
   1014 H2''      -5.4179     4.7041  1246.4849 H        386 DT      0.0000
   1015 H1'       -4.5202     3.8411  1244.5366 H        386 DT      0.0000
   1016 H3        -0.6907     1.9698  1245.6893 H        386 DT      0.0000
   1017 H6        -2.0583     6.5562  1245.1362 H        386 DT      0.0000
   1018 H71        1.5397     5.9779  1245.8347 H        386 DT      0.0000
   1019 H72        0.5822     6.9284  1244.6739 H        386 DT      0.0000
   1020 H73        0.2664     7.0757  1246.4195 H        386 DT      0.0000
   1021 P         -8.3682     5.3730  1246.0296 P.3      387 DT      0.0000
   1022 OP1       -9.7509     5.0296  1245.4175 O.co2    387 DT      0.0000
   1023 OP2       -8.3626     6.7185  1246.6595 O.co2    387 DT      0.0000
   1024 O5'       -8.0049     4.0841  1246.9119 O.3      387 DT      0.0000
   1025 C5'       -8.2446     2.8404  1246.2001 C.3      387 DT      0.0000
   1026 C4'       -7.4887     1.7498  1246.8763 C.3      387 DT      0.0000
   1027 O4'       -6.0780     1.9288  1246.8529 O.3      387 DT      0.0000
   1028 C3'       -7.8814     1.5209  1248.3429 C.3      387 DT      0.0000
   1029 O3'       -7.9984     0.1357  1248.6069 O.3      387 DT      0.0000
   1030 C2'       -6.6461     2.0917  1249.0792 C.3      387 DT      0.0000
   1031 C1'       -5.5846     1.4982  1248.1757 C.3      387 DT      0.0000
   1032 N1        -4.2763     2.0512  1248.4734 N.am     387 DT      0.0000
   1033 C2        -3.1919     1.1907  1248.5282 C.2      387 DT      0.0000
   1034 O2        -3.3757    -0.0128  1248.3397 O.2      387 DT      0.0000
   1035 N3        -1.9602     1.7192  1248.7941 N.am     387 DT      0.0000
   1036 C4        -1.7715     3.0512  1249.0011 C.2      387 DT      0.0000
   1037 O4        -0.5997     3.4702  1249.2244 O.2      387 DT      0.0000
   1038 C5        -2.8936     3.9278  1248.9360 C.2      387 DT      0.0000
   1039 C7        -2.7659     5.4084  1249.1460 C.3      387 DT      0.0000
   1040 C6        -4.0960     3.3917  1248.6749 C.2      387 DT      0.0000
   1041 H5'       -9.3100     2.6103  1246.2125 H        387 DT      0.0000
   1042 H5''      -7.9035     2.9373  1245.1694 H        387 DT      0.0000
   1043 H4'       -7.7047     0.8271  1246.3378 H        387 DT      0.0000
   1044 H3'       -8.7919     2.0596  1248.6053 H        387 DT      0.0000
   1045 H2'       -6.6296     3.1815  1249.0780 H        387 DT      0.0000
   1046 H2''      -6.5708     1.6957  1250.0919 H        387 DT      0.0000
   1047 H1'       -5.5733     0.4109  1248.2513 H        387 DT      0.0000
   1048 H3        -1.1629     1.1007  1248.8385 H        387 DT      0.0000
   1049 H6        -4.9548     4.0445  1248.6218 H        387 DT      0.0000
   1050 H71       -1.7240     5.6592  1249.3449 H        387 DT      0.0000
   1051 H72       -3.1009     5.9322  1248.2507 H        387 DT      0.0000
   1052 H73       -3.3804     5.7095  1249.9943 H        387 DT      0.0000
   1053 P         -9.0887    -0.8154  1249.2149 P.3      388 DC      0.0000
   1054 OP1       -9.7195    -1.6882  1248.1469 O.co2    388 DC      0.0000
   1055 OP2      -10.0115     0.0688  1249.9498 O.co2    388 DC      0.0000
   1056 O5'       -8.0563    -1.7704  1250.0409 O.3      388 DC      0.0000
   1057 C5'       -7.0774    -2.1852  1249.0186 C.3      388 DC      0.0000
   1058 C4'       -6.0391    -3.0179  1249.7151 C.3      388 DC      0.0000
   1059 O4'       -4.8624    -2.3126  1249.9621 O.3      388 DC      0.0000
   1060 C3'       -6.5022    -3.6827  1251.0066 C.3      388 DC      0.0000
   1061 O3'       -6.3256    -5.0909  1250.9269 O.3      388 DC      0.0000
   1062 C2'       -5.6991    -2.9102  1252.0554 C.3      388 DC      0.0000
   1063 C1'       -4.4599    -2.5076  1251.3590 C.3      388 DC      0.0000
   1064 N1        -3.9046    -1.1918  1251.6911 N.am     388 DC      0.0000
   1065 C2        -2.5356    -1.1561  1251.9469 C.2      388 DC      0.0000
   1066 O2        -1.8555    -2.1867  1251.9513 O.2      388 DC      0.0000
   1067 N3        -1.9749     0.0670  1252.2207 N.2      388 DC      0.0000
   1068 C4        -2.7193     1.2099  1252.2108 C.2      388 DC      0.0000
   1069 N4        -2.0856     2.3442  1252.4876 N.pl3    388 DC      0.0000
   1070 C5        -4.1030     1.1604  1251.9328 C.2      388 DC      0.0000
   1071 C6        -4.6392    -0.0487  1251.6680 C.2      388 DC      0.0000
   1072 H5'       -7.5711    -2.7734  1248.2450 H        388 DC      0.0000
   1073 H5''      -6.6105    -1.3062  1248.5744 H        388 DC      0.0000
   1074 H4'       -5.7782    -3.8238  1249.0292 H        388 DC      0.0000
   1075 H3'       -7.5615    -3.4699  1251.1499 H        388 DC      0.0000
   1076 H2'       -6.2518    -2.0336  1252.3933 H        388 DC      0.0000
   1077 H2''      -5.4634    -3.5564  1252.9009 H        388 DC      0.0000
   1078 H1'       -3.6983    -3.2832  1251.4399 H        388 DC      0.0000
   1079 H5        -4.7080     2.0550  1251.9322 H        388 DC      0.0000
   1080 H6        -5.6906    -0.1107  1251.4289 H        388 DC      0.0000
   1081 H41       -1.0956     2.3340  1252.6868 H        388 DC      0.0000
   1082 H42       -2.5941     3.2169  1252.4989 H        388 DC      0.0000
   1083 P         -7.0260    -6.2029  1251.8790 P.3      389 DA      0.0000
   1084 OP1       -7.0821    -7.4940  1251.0852 O.co2    389 DA      0.0000
   1085 OP2       -8.3768    -5.7153  1252.2245 O.co2    389 DA      0.0000
   1086 O5'       -6.0184    -6.3060  1253.1760 O.3      389 DA      0.0000
   1087 C5'       -4.6087    -6.5485  1252.8808 C.3      389 DA      0.0000
   1088 C4'       -3.8000    -6.5185  1254.1360 C.3      389 DA      0.0000
   1089 O4'       -3.1002    -5.2942  1254.3782 O.3      389 DA      0.0000
   1090 C3'       -4.5920    -6.7029  1255.4413 C.3      389 DA      0.0000
   1091 O3'       -3.6856    -7.1039  1256.4712 O.3      389 DA      0.0000
   1092 C2'       -5.0608    -5.2499  1255.6559 C.3      389 DA      0.0000
   1093 C1'       -3.6877    -4.5947  1255.4726 C.3      389 DA      0.0000
   1094 N9        -3.8537    -3.1541  1255.3783 N.ar     389 DA      0.0000
   1095 C8        -4.9842    -2.3936  1255.2624 C.ar     389 DA      0.0000
   1096 N7        -4.7792    -1.0888  1255.2438 N.ar     389 DA      0.0000
   1097 C5        -3.3997    -0.9838  1255.3514 C.ar     389 DA      0.0000
   1098 C6        -2.5328     0.1362  1255.3859 C.ar     389 DA      0.0000
   1099 N6        -2.9295     1.3933  1255.3006 N.pl3    389 DA      0.0000
   1100 N1        -1.2016    -0.1375  1255.5185 N.ar     389 DA      0.0000
   1101 C2        -0.7461    -1.4266  1255.5987 C.ar     389 DA      0.0000
   1102 N3        -1.4953    -2.5262  1255.5688 N.ar     389 DA      0.0000
   1103 C4        -2.8136    -2.2356  1255.4458 C.ar     389 DA      0.0000
   1104 H5'       -4.5038    -7.5258  1252.4096 H        389 DA      0.0000
   1105 H5''      -4.2455    -5.7790  1252.1995 H        389 DA      0.0000
   1106 H4'       -3.0623    -7.3187  1254.0771 H        389 DA      0.0000
   1107 H3'       -5.4253    -7.3963  1255.3276 H        389 DA      0.0000
   1108 H2'       -5.7822    -4.9275  1254.9051 H        389 DA      0.0000
   1109 H2''      -5.4425    -5.0994  1256.6658 H        389 DA      0.0000
   1110 H1'       -3.0945    -4.8058  1256.3622 H        389 DA      0.0000
   1111 H8        -5.9707    -2.8272  1255.1914 H        389 DA      0.0000
   1112 H2         0.3208    -1.5636  1255.6951 H        389 DA      0.0000
   1113 H61       -2.4885     2.2839  1255.4807 H        389 DA      0.0000
   1114 H62       -3.8849     1.4838  1254.9859 H        389 DA      0.0000
   1115 P         -3.2018    -8.6227  1256.6117 P.3      390 DC      0.0000
   1116 OP1       -3.3955    -9.4185  1255.3666 O.co2    390 DC      0.0000
   1117 OP2       -4.0400    -9.1181  1257.7545 O.co2    390 DC      0.0000
   1118 O5'       -1.6476    -8.4854  1256.8948 O.3      390 DC      0.0000
   1119 C5'       -0.6943    -8.2883  1255.8071 C.3      390 DC      0.0000
   1120 C4'        0.4182    -7.5040  1256.5121 C.3      390 DC      0.0000
   1121 O4'       -0.0981    -6.2309  1256.8241 O.3      390 DC      0.0000
   1122 C3'        0.8819    -8.1358  1257.8220 C.3      390 DC      0.0000
   1123 O3'        2.3162    -8.3021  1257.8899 O.3      390 DC      0.0000
   1124 C2'        0.3272    -7.1972  1258.9042 C.3      390 DC      0.0000
   1125 C1'        0.3404    -5.8865  1258.2280 C.3      390 DC      0.0000
   1126 N1        -0.6119    -4.8368  1258.5808 N.am     390 DC      0.0000
   1127 C2        -0.1012    -3.5404  1258.5539 C.2      390 DC      0.0000
   1128 O2         1.0816    -3.2996  1258.3470 O.2      390 DC      0.0000
   1129 N3        -0.9668    -2.5224  1258.8070 N.2      390 DC      0.0000
   1130 C4        -2.2854    -2.7294  1259.0404 C.2      390 DC      0.0000
   1131 N4        -3.0332    -1.6520  1259.2713 N.pl3    390 DC      0.0000
   1132 C5        -2.7974    -4.0561  1259.0470 C.2      390 DC      0.0000
   1133 C6        -1.9373    -5.0556  1258.7975 C.2      390 DC      0.0000
   1134 H5'       -0.3276    -9.2399  1255.4223 H        390 DC      0.0000
   1135 H5''      -1.1381    -7.6944  1255.0081 H        390 DC      0.0000
   1136 H4'        1.2691    -7.3962  1255.8394 H        390 DC      0.0000
   1137 H3'        0.4094    -9.1124  1257.9279 H        390 DC      0.0000
   1138 H2'       -0.6850    -7.4820  1259.1912 H        390 DC      0.0000
   1139 H2''       0.9834    -7.1859  1259.7744 H        390 DC      0.0000
   1140 H1'        1.3530    -5.4832  1258.2147 H        390 DC      0.0000
   1141 H5        -3.8407    -4.2522  1259.2455 H        390 DC      0.0000
   1142 H6        -2.3100    -6.0688  1258.7678 H        390 DC      0.0000
   1143 H41       -2.6128    -0.7337  1259.2603 H        390 DC      0.0000
   1144 H42       -4.0208    -1.7531  1259.4575 H        390 DC      0.0000
   1145 P         -0.9464     8.4351  1260.8494 P.3      390 DG      0.0000
   1146 OP1       -1.1783     9.9018  1261.0282 O.co2    390 DG      0.0000
   1147 OP2       -1.8212     7.8208  1259.7646 O.co2    390 DG      0.0000
   1148 O5'        0.6628     8.1583  1260.6421 O.3      390 DG      0.0000
   1149 C5'        1.4315     7.5597  1261.7379 C.3      390 DG      0.0000
   1150 C4'        2.4361     6.6005  1261.1036 C.3      390 DG      0.0000
   1151 O4'        1.9295     5.2973  1261.0078 O.3      390 DG      0.0000
   1152 C3'        2.8820     6.9920  1259.6973 C.3      390 DG      0.0000
   1153 O3'        4.2850     6.7633  1259.4303 O.3      390 DG      0.0000
   1154 C2'        1.9873     6.1231  1258.7950 C.3      390 DG      0.0000
   1155 C1'        1.9051     4.8488  1259.6188 C.3      390 DG      0.0000
   1156 N9         0.6545     4.1203  1259.3455 N.ar     390 DG      0.0000
   1157 C8        -0.6088     4.6392  1259.1889 C.ar     390 DG      0.0000
   1158 N7        -1.5295     3.7383  1258.9705 N.ar     390 DG      0.0000
   1159 C5        -0.8286     2.5383  1258.9953 C.ar     390 DG      0.0000
   1160 C6        -1.2632     1.1951  1258.8388 C.2      390 DG      0.0000
   1161 O6        -2.4250     0.8114  1258.6420 O.2      390 DG      0.0000
   1162 N1        -0.2592     0.2625  1258.9257 N.am     390 DG      0.0000
   1163 C2         1.0353     0.5989  1259.1464 C.2      390 DG      0.0000
   1164 N2         1.8971    -0.4124  1259.2097 N.pl3    390 DG      0.0000
   1165 N3         1.4966     1.8456  1259.3041 N.2      390 DG      0.0000
   1166 C4         0.5110     2.7602  1259.2208 C.ar     390 DG      0.0000
   1167 H5'        1.9553     8.3359  1262.2957 H        390 DG      0.0000
   1168 H5''       0.7641     7.0114  1262.4028 H        390 DG      0.0000
   1169 H4'        3.3203     6.5711  1261.7403 H        390 DG      0.0000
   1170 H3'        2.6507     8.0434  1259.5268 H        390 DG      0.0000
   1171 H2'        1.0046     6.5725  1258.6523 H        390 DG      0.0000
   1172 H2''       2.4703     5.9345  1257.8363 H        390 DG      0.0000
   1173 H1'        2.7651     4.2112  1259.4136 H        390 DG      0.0000
   1174 H8        -0.8212     5.6968  1259.2416 H        390 DG      0.0000
   1175 H1        -0.4948    -0.7140  1258.8209 H        390 DG      0.0000
   1176 H21        1.5714    -1.3614  1259.0946 H        390 DG      0.0000
   1177 H22        2.8773    -0.2311  1259.3729 H        390 DG      0.0000
   1178 P          4.6562     6.4329  1257.9068 P.3      389 DT      0.0000
   1179 OP1        6.0469     6.8550  1257.5159 O.co2    389 DT      0.0000
   1180 OP2        3.6312     7.2450  1257.2063 O.co2    389 DT      0.0000
   1181 O5'        4.5070     4.8429  1257.7759 O.3      389 DT      0.0000
   1182 C5'        5.7039     4.0443  1258.0436 C.3      389 DT      0.0000
   1183 C4'        5.5872     2.7392  1257.2865 C.3      389 DT      0.0000
   1184 O4'        4.2644     2.2334  1257.2592 O.3      389 DT      0.0000
   1185 C3'        6.0159     2.8535  1255.8318 C.3      389 DT      0.0000
   1186 O3'        6.7300     1.7000  1255.3367 O.3      389 DT      0.0000
   1187 C2'        4.7027     3.0562  1255.1090 C.3      389 DT      0.0000
   1188 C1'        3.8381     2.0782  1255.8871 C.3      389 DT      0.0000
   1189 N1         2.4461     2.5301  1255.7357 N.am     389 DT      0.0000
   1190 C2         1.4662     1.5485  1255.8425 C.2      389 DT      0.0000
   1191 O2         1.7774     0.3775  1256.0323 O.2      389 DT      0.0000
   1192 N3         0.1650     1.9498  1255.7224 N.am     389 DT      0.0000
   1193 C4        -0.1705     3.2525  1255.5048 C.2      389 DT      0.0000
   1194 O4        -1.4114     3.5307  1255.4072 O.2      389 DT      0.0000
   1195 C5         0.8550     4.2350  1255.3984 C.2      389 DT      0.0000
   1196 C7         0.4964     5.6753  1255.1694 C.3      389 DT      0.0000
   1197 C6         2.1241     3.8374  1255.5202 C.2      389 DT      0.0000
   1198 H5'        6.5894     4.5853  1257.7098 H        389 DT      0.0000
   1199 H5''       5.7786     3.8427  1259.1122 H        389 DT      0.0000
   1200 H4'        6.2253     2.0025  1257.7745 H        389 DT      0.0000
   1201 H3'        6.6359     3.7413  1255.7078 H        389 DT      0.0000
   1202 H2'        4.3417     4.0806  1255.2005 H        389 DT      0.0000
   1203 H2''       4.7824     2.7614  1254.0626 H        389 DT      0.0000
   1204 H1'        3.9707     1.0547  1255.5364 H        389 DT      0.0000
   1205 H3        -0.5694     1.2605  1255.7970 H        389 DT      0.0000
   1206 H6         2.9148     4.5693  1255.4460 H        389 DT      0.0000
   1207 H71       -0.5869     5.7740  1255.1007 H        389 DT      0.0000
   1208 H72        0.8639     6.2775  1256.0003 H        389 DT      0.0000
   1209 H73        0.9523     6.0202  1254.2413 H        389 DT      0.0000
   1210 P          8.0843     2.2610  1254.5583 P.3      388 DG      0.0000
   1211 OP1        9.2974     2.2982  1255.4295 O.co2    388 DG      0.0000
   1212 OP2        7.5680     3.5922  1254.1528 O.co2    388 DG      0.0000
   1213 O5'        8.2990     1.1033  1253.4775 O.3      388 DG      0.0000
   1214 C5'        8.9024    -0.1455  1253.9010 C.3      388 DG      0.0000
   1215 C4'        7.9226    -1.2229  1253.4532 C.3      388 DG      0.0000
   1216 O4'        6.5999    -0.8042  1253.7239 O.3      388 DG      0.0000
   1217 C3'        7.9994    -1.5660  1251.9655 C.3      388 DG      0.0000
   1218 O3'        8.2358    -2.9468  1251.7570 O.3      388 DG      0.0000
   1219 C2'        6.7010    -1.0304  1251.3888 C.3      388 DG      0.0000
   1220 C1'        5.7668    -1.0723  1252.5749 C.3      388 DG      0.0000
   1221 N9         4.7178    -0.0566  1252.4514 N.ar     388 DG      0.0000
   1222 C8         4.8584     1.2930  1252.2925 C.ar     388 DG      0.0000
   1223 N7         3.7193     1.9367  1252.2144 N.ar     388 DG      0.0000
   1224 C5         2.7576     0.9399  1252.3520 C.ar     388 DG      0.0000
   1225 C6         1.3386     0.9878  1252.3614 C.2      388 DG      0.0000
   1226 O6         0.6304     1.9847  1252.2624 O.2      388 DG      0.0000
   1227 N1         0.7300    -0.2260  1252.5104 N.am     388 DG      0.0000
   1228 C2         1.4465    -1.3907  1252.6433 C.2      388 DG      0.0000
   1229 N2         0.7269    -2.5049  1252.7789 N.pl3    388 DG      0.0000
   1230 N3         2.7785    -1.5052  1252.6476 N.2      388 DG      0.0000
   1231 C4         3.3677    -0.2945  1252.4969 C.ar     388 DG      0.0000
   1232 H5'        9.8717    -0.2853  1253.4222 H        388 DG      0.0000
   1233 H5''       9.0118    -0.1626  1254.9853 H        388 DG      0.0000
   1234 H4'        8.1212    -2.1286  1254.0262 H        388 DG      0.0000
   1235 H3'        8.8258    -1.0067  1251.5269 H        388 DG      0.0000
   1236 H2'        6.8249    -0.0113  1251.0224 H        388 DG      0.0000
   1237 H2''       6.3385    -1.6814  1250.5932 H        388 DG      0.0000
   1238 H1'        5.3189    -2.0622  1252.6620 H        388 DG      0.0000
   1239 H8         5.8188     1.7838  1252.2364 H        388 DG      0.0000
   1240 H1        -0.2790    -0.2686  1252.5233 H        388 DG      0.0000
   1241 H21       -0.2820    -2.4575  1252.7799 H        388 DG      0.0000
   1242 H22        1.1906    -3.3963  1252.8807 H        388 DG      0.0000
   1243 P          7.5556    -4.0800  1250.8907 P.3      387 DA      0.0000
   1244 OP1        7.5325    -5.3998  1251.6721 O.co2    387 DA      0.0000
   1245 OP2        8.3963    -4.2063  1249.6980 O.co2    387 DA      0.0000
   1246 O5'        5.9956    -3.6443  1250.7159 O.3      387 DA      0.0000
   1247 C5'        5.1801    -4.0674  1251.8723 C.3      387 DA      0.0000
   1248 C4'        4.1587    -5.0443  1251.3445 C.3      387 DA      0.0000
   1249 O4'        2.9071    -4.4458  1251.1223 O.3      387 DA      0.0000
   1250 C3'        4.5594    -5.6590  1250.0040 C.3      387 DA      0.0000
   1251 O3'        4.2621    -7.0327  1249.9289 O.3      387 DA      0.0000
   1252 C2'        3.8831    -4.7348  1249.0075 C.3      387 DA      0.0000
   1253 C1'        2.7290    -4.0992  1249.7313 C.3      387 DA      0.0000
   1254 N9         2.6804    -2.6445  1249.5058 N.ar     387 DA      0.0000
   1255 C8         3.7220    -1.7616  1249.3194 C.ar     387 DA      0.0000
   1256 N7         3.3492    -0.5178  1249.1235 N.ar     387 DA      0.0000
   1257 C5         1.9642    -0.5837  1249.2104 C.ar     387 DA      0.0000
   1258 C6         0.9713     0.4182  1249.1048 C.ar     387 DA      0.0000
   1259 N6         1.2350     1.6955  1248.8923 N.pl3    387 DA      0.0000
   1260 N1        -0.3182    -0.0014  1249.2285 N.ar     387 DA      0.0000
   1261 C2        -0.6201    -1.3144  1249.4530 C.ar     387 DA      0.0000
   1262 N3         0.2641    -2.3030  1249.5689 N.ar     387 DA      0.0000
   1263 C4         1.5420    -1.8737  1249.4328 C.ar     387 DA      0.0000
   1264 H5'        5.8097    -4.5490  1252.6204 H        387 DA      0.0000
   1265 H5''       4.6780    -3.2041  1252.3090 H        387 DA      0.0000
   1266 H4'        4.0363    -5.8465  1252.0722 H        387 DA      0.0000
   1267 H3'        5.6373    -5.5427  1249.8909 H        387 DA      0.0000
   1268 H2'        3.5227    -5.3039  1248.1506 H        387 DA      0.0000
   1269 H2''       4.5832    -3.9675  1248.6769 H        387 DA      0.0000
   1270 H1'        1.8003    -4.5431  1249.3731 H        387 DA      0.0000
   1271 H8         4.7579    -2.0669  1249.3333 H        387 DA      0.0000
   1272 H2        -1.6648    -1.5725  1249.5443 H        387 DA      0.0000
   1273 H61        0.6044     2.4187  1249.2077 H        387 DA      0.0000
   1274 H62        2.0820     1.9531  1248.4061 H        387 DA      0.0000
   1275 P          3.7082    -7.9197  1248.7443 P.3      386 DA      0.0000
   1276 OP1        3.2987    -9.3286  1249.2642 O.co2    386 DA      0.0000
   1277 OP2        4.8683    -8.0644  1247.8106 O.co2    386 DA      0.0000
   1278 O5'        2.3724    -7.2527  1248.2416 O.3      386 DA      0.0000
   1279 C5'        1.0996    -7.7560  1248.6974 C.3      386 DA      0.0000
   1280 C4'        0.0287    -6.9497  1247.9955 C.3      386 DA      0.0000
   1281 O4'        0.3208    -5.5867  1247.8747 O.3      386 DA      0.0000
   1282 C3'       -0.2885    -7.4529  1246.5879 C.3      386 DA      0.0000
   1283 O3'       -1.6306    -7.9740  1246.5565 O.3      386 DA      0.0000
   1284 C2'        0.0509    -6.2630  1245.6884 C.3      386 DA      0.0000
   1285 C1'       -0.1632    -5.0823  1246.5862 C.3      386 DA      0.0000
   1286 N9         0.6178    -3.8866  1246.2866 N.ar     386 DA      0.0000
   1287 C8         1.9775    -3.7579  1246.0918 C.ar     386 DA      0.0000
   1288 N7         2.3689    -2.5201  1245.8864 N.ar     386 DA      0.0000
   1289 C5         1.2046    -1.7808  1245.9609 C.ar     386 DA      0.0000
   1290 C6         0.9559    -0.3963  1245.8274 C.ar     386 DA      0.0000
   1291 N6         1.9018     0.5058  1245.5843 N.pl3    386 DA      0.0000
   1292 N1        -0.3552    -0.0213  1245.9763 N.ar     386 DA      0.0000
   1293 C2        -1.3339    -0.9116  1246.2288 C.ar     386 DA      0.0000
   1294 N3        -1.1741    -2.2312  1246.3677 N.ar     386 DA      0.0000
   1295 C4         0.1186    -2.5976  1246.2204 C.ar     386 DA      0.0000
   1296 H5'        1.0012    -8.8111  1248.4423 H        386 DA      0.0000
   1297 H5''       1.0142    -7.6259  1249.7762 H        386 DA      0.0000
   1298 H4'       -0.8836    -7.0363  1248.5856 H        386 DA      0.0000
   1299 H3'        0.3988    -8.2655  1246.3529 H        386 DA      0.0000
   1300 H2'        1.0854    -6.3128  1245.3485 H        386 DA      0.0000
   1301 H2''      -0.6285    -6.2228  1244.8371 H        386 DA      0.0000
   1302 H1'       -1.2238    -4.8383  1246.6473 H        386 DA      0.0000
   1303 H8         2.6576    -4.5968  1246.1068 H        386 DA      0.0000
   1304 H2        -2.3373    -0.5246  1246.3279 H        386 DA      0.0000
   1305 H61        1.6858     1.4476  1245.8783 H        386 DA      0.0000
   1306 H62        2.7751     0.2662  1245.1370 H        386 DA      0.0000
   1307 P         -2.2088    -8.5567  1245.1715 P.3      385 DT      0.0000
   1308 OP1       -3.4641    -9.3716  1245.2297 O.co2    385 DT      0.0000
   1309 OP2       -1.0019    -9.2746  1244.6589 O.co2    385 DT      0.0000
   1310 O5'       -2.6269    -7.1046  1244.4684 O.3      385 DT      0.0000
   1311 C5'       -3.2381    -6.2489  1245.4807 C.3      385 DT      0.0000
   1312 C4'       -4.0820    -5.2206  1244.7978 C.3      385 DT      0.0000
   1313 O4'       -3.4342    -3.9969  1244.6173 O.3      385 DT      0.0000
   1314 C3'       -4.6068    -5.6503  1243.4365 C.3      385 DT      0.0000
   1315 O3'       -5.9330    -5.1783  1243.1692 O.3      385 DT      0.0000
   1316 C2'       -3.5103    -5.0558  1242.5432 C.3      385 DT      0.0000
   1317 C1'       -3.2946    -3.7011  1243.1832 C.3      385 DT      0.0000
   1318 N1        -1.9218    -3.2131  1242.9532 N.am     385 DT      0.0000
   1319 C2        -1.7412    -1.8465  1242.8316 C.2      385 DT      0.0000
   1320 O2        -2.6984    -1.0718  1242.8684 O.2      385 DT      0.0000
   1321 N3        -0.4657    -1.3798  1242.6642 N.am     385 DT      0.0000
   1322 C4         0.6057    -2.2162  1242.6157 C.2      385 DT      0.0000
   1323 O4         1.7475    -1.6989  1242.4302 O.2      385 DT      0.0000
   1324 C5         0.4004    -3.6165  1242.7641 C.2      385 DT      0.0000
   1325 C7         1.5660    -4.5753  1242.7120 C.3      385 DT      0.0000
   1326 C6        -0.8506    -4.0560  1242.9371 C.2      385 DT      0.0000
   1327 H5'       -3.8597    -6.8517  1246.1428 H        385 DT      0.0000
   1328 H5''      -2.4585    -5.7550  1246.0607 H        385 DT      0.0000
   1329 H4'       -4.9473    -5.0375  1245.4348 H        385 DT      0.0000
   1330 H3'       -4.5856    -6.7377  1243.3645 H        385 DT      0.0000
   1331 H2'       -2.6026    -5.6586  1242.5738 H        385 DT      0.0000
   1332 H2''      -3.8654    -4.9458  1241.5186 H        385 DT      0.0000
   1333 H1'       -4.0382    -2.9773  1242.8492 H        385 DT      0.0000
   1334 H3        -0.3155    -0.3851  1242.5740 H        385 DT      0.0000
   1335 H6        -1.0180    -5.1148  1243.0684 H        385 DT      0.0000
   1336 H71        1.6533    -4.9877  1241.7068 H        385 DT      0.0000
   1337 H72        1.4025    -5.3847  1243.4235 H        385 DT      0.0000
   1338 H73        2.4836    -4.0459  1242.9685 H        385 DT      0.0000
   1339 P         -6.5169    -5.5154  1241.6793 P.3      384 DT      0.0000
   1340 OP1       -7.6910    -6.4850  1241.8273 O.co2    384 DT      0.0000
   1341 OP2       -5.3674    -6.2122  1241.0095 O.co2    384 DT      0.0000
   1342 O5'       -6.9417    -4.1750  1241.0273 O.3      384 DT      0.0000
   1343 C5'       -7.4024    -3.0519  1241.7786 C.3      384 DT      0.0000
   1344 C4'       -7.0430    -1.8083  1241.0307 C.3      384 DT      0.0000
   1345 O4'       -5.6945    -1.4288  1240.9737 O.3      384 DT      0.0000
   1346 C3'       -7.5148    -1.6972  1239.5646 C.3      384 DT      0.0000
   1347 O3'       -7.7858    -0.2962  1239.4608 O.3      384 DT      0.0000
   1348 C2'       -6.2452    -2.0967  1238.8008 C.3      384 DT      0.0000
   1349 C1'       -5.2791    -1.2249  1239.5766 C.3      384 DT      0.0000
   1350 N1        -3.8631    -1.5881  1239.4704 N.am     384 DT      0.0000
   1351 C2        -2.9654    -0.5120  1239.4698 C.2      384 DT      0.0000
   1352 O2        -3.3680     0.6524  1239.5128 O.2      384 DT      0.0000
   1353 N3        -1.6349    -0.8133  1239.4163 N.am     384 DT      0.0000
   1354 C4        -1.1700    -2.0935  1239.3566 C.2      384 DT      0.0000
   1355 O4         0.0840    -2.2693  1239.2942 O.2      384 DT      0.0000
   1356 C5        -2.1026    -3.1663  1239.3648 C.2      384 DT      0.0000
   1357 C7        -1.6000    -4.5936  1239.3034 C.3      384 DT      0.0000
   1358 C6        -3.4031    -2.8669  1239.4313 C.2      384 DT      0.0000
   1359 H5'       -8.4841    -3.1088  1241.9009 H        384 DT      0.0000
   1360 H5''      -6.9225    -3.0433  1242.7572 H        384 DT      0.0000
   1361 H4'       -7.5480    -0.9989  1241.5579 H        384 DT      0.0000
   1362 H3'       -8.3758    -2.3252  1239.3359 H        384 DT      0.0000
   1363 H2'       -6.2925    -1.8290  1237.7453 H        384 DT      0.0000
   1364 H2''      -6.0189    -3.1547  1238.9325 H        384 DT      0.0000
   1365 H1'       -5.4160    -0.1801  1239.2976 H        384 DT      0.0000
   1366 H3        -0.9669    -0.0559  1239.4212 H        384 DT      0.0000
   1367 H6        -4.1192    -3.6750  1239.4550 H        384 DT      0.0000
   1368 H71       -0.5111    -4.5941  1239.2546 H        384 DT      0.0000
   1369 H72       -2.0034    -5.0828  1238.4168 H        384 DT      0.0000
   1370 H73       -1.9240    -5.1315  1240.1944 H        384 DT      0.0000
   1371 P         -8.5476     0.4224  1238.3146 P.3      383 DC      0.0000
   1372 OP1       -9.6016     1.3488  1238.9238 O.co2    383 DC      0.0000
   1373 OP2       -9.2219    -0.6609  1237.5328 O.co2    383 DC      0.0000
   1374 O5'       -7.3297     1.2125  1237.5752 O.3      383 DC      0.0000
   1375 C5'       -6.8215     2.3805  1238.2997 C.3      383 DC      0.0000
   1376 C4'       -6.4113     3.3795  1237.2492 C.3      383 DC      0.0000
   1377 O4'       -5.0244     3.3568  1237.0039 O.3      383 DC      0.0000
   1378 C3'       -7.0797     3.2029  1235.8848 C.3      383 DC      0.0000
   1379 O3'       -7.3179     4.4207  1235.1755 O.3      383 DC      0.0000
   1380 C2'       -6.0817     2.2601  1235.1987 C.3      383 DC      0.0000
   1381 C1'       -4.7407     2.7463  1235.7452 C.3      383 DC      0.0000
   1382 N1        -3.8434     1.5729  1235.8630 N.am     383 DC      0.0000
   1383 C2        -2.4721     1.8232  1235.8803 C.2      383 DC      0.0000
   1384 O2        -2.0310     2.9787  1235.8116 O.2      383 DC      0.0000
   1385 N3        -1.6392     0.7419  1235.9835 N.2      383 DC      0.0000
   1386 C4        -2.1121    -0.5299  1236.0543 C.2      383 DC      0.0000
   1387 N4        -1.2594    -1.5518  1236.1562 N.pl3    383 DC      0.0000
   1388 C5        -3.5163    -0.7576  1236.0291 C.2      383 DC      0.0000
   1389 C6        -4.3337     0.3052  1235.9355 C.2      383 DC      0.0000
   1390 H5'       -7.6013     2.7994  1238.9357 H        383 DC      0.0000
   1391 H5''      -5.9589     2.0986  1238.9036 H        383 DC      0.0000
   1392 H4'       -6.6670     4.3729  1237.6180 H        383 DC      0.0000
   1393 H3'       -8.0266     2.6800  1236.0190 H        383 DC      0.0000
   1394 H2'       -6.1253     2.3616  1234.1143 H        383 DC      0.0000
   1395 H2''      -6.2644     1.2271  1235.4946 H        383 DC      0.0000
   1396 H1'       -4.3063     3.4796  1235.0659 H        383 DC      0.0000
   1397 H5        -3.9155    -1.7596  1236.0839 H        383 DC      0.0000
   1398 H6        -5.4024     0.1500  1235.9174 H        383 DC      0.0000
   1399 H41       -0.2645    -1.3793  1236.1769 H        383 DC      0.0000
   1400 H42       -1.6092    -2.4977  1236.2126 H        383 DC      0.0000
   1401 P         -7.2046     4.6253  1233.5435 P.3      382 DA      0.0000
   1402 OP1       -8.0541     5.8158  1233.1540 O.co2    382 DA      0.0000
   1403 OP2       -7.6521     3.3255  1232.9734 O.co2    382 DA      0.0000
   1404 O5'       -5.6702     5.0336  1233.3780 O.3      382 DA      0.0000
   1405 C5'       -5.2579     6.3772  1233.8434 C.3      382 DA      0.0000
   1406 C4'       -4.0482     6.6513  1232.9661 C.3      382 DA      0.0000
   1407 O4'       -3.0267     5.6820  1233.2335 O.3      382 DA      0.0000
   1408 C3'       -4.3381     6.5045  1231.4617 C.3      382 DA      0.0000
   1409 O3'       -3.3312     7.1179  1230.6727 O.3      382 DA      0.0000
   1410 C2'       -4.1339     4.9899  1231.2742 C.3      382 DA      0.0000
   1411 C1'       -2.7771     4.9452  1232.0289 C.3      382 DA      0.0000
   1412 N9        -2.4869     3.5224  1232.1743 N.ar     382 DA      0.0000
   1413 C8        -3.4088     2.5022  1232.2472 C.ar     382 DA      0.0000
   1414 N7        -2.8642     1.3169  1232.3618 N.ar     382 DA      0.0000
   1415 C5        -1.4839     1.5866  1232.3554 C.ar     382 DA      0.0000
   1416 C6        -0.3638     0.7162  1232.4554 C.ar     382 DA      0.0000
   1417 N6        -0.4623    -0.6106  1232.5782 N.pl3    382 DA      0.0000
   1418 N1         0.8436     1.3463  1232.4202 N.ar     382 DA      0.0000
   1419 C2         0.9440     2.6929  1232.3013 C.ar     382 DA      0.0000
   1420 N3        -0.0623     3.5671  1232.2099 N.ar     382 DA      0.0000
   1421 C4        -1.2481     2.9340  1232.2374 C.ar     382 DA      0.0000
   1422 H5'       -6.0440     7.1135  1233.6766 H        382 DA      0.0000
   1423 H5''      -4.9727     6.3497  1234.8950 H        382 DA      0.0000
   1424 H4'       -3.6667     7.6517  1233.1701 H        382 DA      0.0000
   1425 H3'       -5.3424     6.8311  1231.1921 H        382 DA      0.0000
   1426 H2'       -4.9086     4.3932  1231.7559 H        382 DA      0.0000
   1427 H2''      -4.0185     4.7264  1230.2229 H        382 DA      0.0000
   1428 H1'       -1.9997     5.4325  1231.4405 H        382 DA      0.0000
   1429 H8        -4.4761     2.6638  1232.2132 H        382 DA      0.0000
   1430 H2         1.9431     3.1024  1232.2781 H        382 DA      0.0000
   1431 H61       -1.3717    -1.0494  1232.6030 H        382 DA      0.0000
   1432 H62        0.3726    -1.1748  1232.6463 H        382 DA      0.0000
   1433 P         -3.7129     8.1544  1229.5317 P.3      381 DC      0.0000
   1434 OP1       -3.8636     9.4498  1230.3120 O.co2    381 DC      0.0000
   1435 OP2       -4.9303     7.7745  1228.8061 O.co2    381 DC      0.0000
   1436 O5'       -2.3952     8.0293  1228.5559 O.3      381 DC      0.0000
   1437 C5'       -1.0869     8.1952  1229.2249 C.3      381 DC      0.0000
   1438 C4'       -0.0987     7.2590  1228.5809 C.3      381 DC      0.0000
   1439 O4'       -0.0114     5.9903  1229.2180 O.3      381 DC      0.0000
   1440 C3'       -0.4181     6.9757  1227.1030 C.3      381 DC      0.0000
   1441 O3'        0.7326     6.7751  1226.2917 O.3      381 DC      0.0000
   1442 C2'       -1.1698     5.6144  1227.2687 C.3      381 DC      0.0000
   1443 C1'       -0.0292     5.0046  1228.1643 C.3      381 DC      0.0000
   1444 N1        -0.3723     3.6270  1228.4022 N.am     381 DC      0.0000
   1445 C2         0.6426     2.7388  1228.7193 C.2      381 DC      0.0000
   1446 O2         1.8540     2.9413  1228.8598 O.2      381 DC      0.0000
   1447 N3         0.3090     1.4277  1228.9175 N.2      381 DC      0.0000
   1448 C4        -0.9789     0.9823  1228.8015 C.2      381 DC      0.0000
   1449 N4        -1.2602    -0.3122  1229.0176 N.pl3    381 DC      0.0000
   1450 C5        -2.0095     1.9054  1228.4719 C.2      381 DC      0.0000
   1451 C6        -1.6584     3.1823  1228.2802 C.2      381 DC      0.0000
   1452 H5'       -0.7449     9.2242  1229.1134 H        381 DC      0.0000
   1453 H5''      -1.1836     7.9540  1230.2835 H        381 DC      0.0000
   1454 H4'        0.8851     7.7260  1228.6276 H        381 DC      0.0000
   1455 H3'       -1.0709     7.7414  1226.6840 H        381 DC      0.0000
   1456 H2'       -2.1249     5.7064  1227.7858 H        381 DC      0.0000
   1457 H2''      -1.2693     5.0861  1226.3205 H        381 DC      0.0000
   1458 H1'        0.9138     5.0483  1227.6194 H        381 DC      0.0000
   1459 H5        -3.0376     1.5874  1228.3798 H        381 DC      0.0000
   1460 H6        -2.4268     3.8939  1228.0170 H        381 DC      0.0000
   1461 H41       -0.5204    -0.9564  1229.2581 H        381 DC      0.0000
   1462 H42       -2.2116    -0.6422  1228.9397 H        381 DC      0.0000
   1463 P          4.5724    -8.9149  1262.8909 P.3      391 DG      0.0000
   1464 OP1        4.5403   -10.3983  1262.8894 O.co2    391 DG      0.0000
   1465 OP2        3.5583    -8.4508  1263.9466 O.co2    391 DG      0.0000
   1466 O5'        5.9959    -8.2270  1263.0693 O.3      391 DG      0.0000
   1467 C5'        6.8469    -7.6276  1262.0693 C.3      391 DG      0.0000
   1468 C4'        7.2705    -6.2617  1262.5681 C.3      391 DG      0.0000
   1469 O4'        6.3854    -5.2457  1262.1490 O.3      391 DG      0.0000
   1470 C3'        7.4619    -6.0803  1264.0603 C.3      391 DG      0.0000
   1471 O3'        8.7797    -5.5532  1264.3723 O.3      391 DG      0.0000
   1472 C2'        6.3321    -5.1602  1264.4822 C.3      391 DG      0.0000
   1473 C1'        6.0215    -4.3820  1263.2265 C.3      391 DG      0.0000
   1474 N9         4.5930    -4.0189  1263.1975 N.ar     391 DG      0.0000
   1475 C8         3.4885    -4.8051  1263.4264 C.ar     391 DG      0.0000
   1476 N7         2.3453    -4.1636  1263.3367 N.ar     391 DG      0.0000
   1477 C5         2.7207    -2.8607  1263.0197 C.ar     391 DG      0.0000
   1478 C6         1.9592    -1.6876  1262.7937 C.2      391 DG      0.0000
   1479 O6         0.7349    -1.5576  1262.8150 O.2      391 DG      0.0000
   1480 N1         2.6887    -0.5650  1262.5122 N.am     391 DG      0.0000
   1481 C2         3.9819    -0.5600  1262.4516 C.2      391 DG      0.0000
   1482 N2         4.4100     0.6052  1262.1548 N.pl3    391 DG      0.0000
   1483 N3         4.8185    -1.6611  1262.6603 N.2      391 DG      0.0000
   1484 C4         4.0965    -2.7575  1262.9329 C.ar     391 DG      0.0000
   1485 H5'        7.7263    -8.2517  1261.9106 H        391 DG      0.0000
   1486 H5''       6.2971    -7.5228  1261.1339 H        391 DG      0.0000
   1487 H4'        8.2326    -6.0464  1262.1034 H        391 DG      0.0000
   1488 H3'        7.3386    -7.0440  1264.5543 H        391 DG      0.0000
   1489 H2'        5.4648    -5.7336  1264.8092 H        391 DG      0.0000
   1490 H2''       6.6642    -4.4883  1265.2737 H        391 DG      0.0000
   1491 H1'        6.6305    -3.4785  1263.1946 H        391 DG      0.0000
   1492 H8         3.5548    -5.8576  1263.6594 H        391 DG      0.0000
   1493 H1         2.1954     0.3001  1262.3438 H        391 DG      0.0000
   1494 H21        3.7565     1.3617  1262.0104 H        391 DG      0.0000
   1495 H22        5.4022     0.7708  1262.0643 H        391 DG      0.0000
   1496 P          9.1601    -4.9991  1265.8008 P.3      392 DT      0.0000
   1497 OP1       10.5315    -5.3567  1266.3125 O.co2    392 DT      0.0000
   1498 OP2        8.1887    -5.7623  1266.7195 O.co2    392 DT      0.0000
   1499 O5'        8.8073    -3.4900  1265.8294 O.3      392 DT      0.0000
   1500 C5'        9.8016    -2.4387  1265.6854 C.3      392 DT      0.0000
   1501 C4'        9.0067    -1.1510  1265.7429 C.3      392 DT      0.0000
   1502 O4'        7.6384    -1.3565  1265.4678 O.3      392 DT      0.0000
   1503 C3'        9.0253    -0.4095  1267.0557 C.3      392 DT      0.0000
   1504 O3'        9.6907     0.8481  1266.8675 O.3      392 DT      0.0000
   1505 C2'        7.5606    -0.2171  1267.4479 C.3      392 DT      0.0000
   1506 C1'        6.8993    -0.2683  1266.0951 C.3      392 DT      0.0000
   1507 N1         5.5013    -0.6887  1266.1918 N.am     392 DT      0.0000
   1508 C2         4.5409     0.2661  1265.9939 C.2      392 DT      0.0000
   1509 O2         4.8164     1.4397  1265.7557 O.2      392 DT      0.0000
   1510 N3         3.2351    -0.1369  1266.0749 N.am     392 DT      0.0000
   1511 C4         2.8749    -1.4149  1266.3308 C.2      392 DT      0.0000
   1512 O4         1.6361    -1.6340  1266.3761 O.2      392 DT      0.0000
   1513 C5         3.8939    -2.4009  1266.5305 C.2      392 DT      0.0000
   1514 C7         3.5381    -3.8248  1266.8104 C.3      392 DT      0.0000
   1515 C6         5.1683    -1.9978  1266.4490 C.2      392 DT      0.0000
   1516 H5'       10.5259    -2.4803  1266.4989 H        392 DT      0.0000
   1517 H5''      10.3079    -2.5272  1264.7242 H        392 DT      0.0000
   1518 H4'        9.4022    -0.4824  1264.9784 H        392 DT      0.0000
   1519 H3'        9.5427    -0.9988  1267.8128 H        392 DT      0.0000
   1520 H2'        7.2100    -1.0198  1268.0967 H        392 DT      0.0000
   1521 H2''       7.4092     0.7550  1267.9171 H        392 DT      0.0000
   1522 H1'        7.0086     0.6691  1265.5498 H        392 DT      0.0000
   1523 H3         2.5085     0.5510  1265.9374 H        392 DT      0.0000
   1524 H6         5.9574    -2.7218  1266.5894 H        392 DT      0.0000
   1525 H71        3.6687    -4.4173  1265.9049 H        392 DT      0.0000
   1526 H72        2.4992    -3.8824  1267.1352 H        392 DT      0.0000
   1527 H73        4.1863    -4.2137  1267.5957 H        392 DT      0.0000
   1528 P         10.5926     1.2888  1268.1474 P.3      393 DG      0.0000
   1529 OP1       11.7649     1.9486  1267.4323 O.co2    393 DG      0.0000
   1530 OP2       10.9525     0.1010  1268.9009 O.co2    393 DG      0.0000
   1531 O5'        9.5064     2.3437  1268.7569 O.3      393 DG      0.0000
   1532 C5'        8.9841     3.1930  1267.6663 C.3      393 DG      0.0000
   1533 C4'        7.7706     3.9056  1268.1864 C.3      393 DG      0.0000
   1534 O4'        6.5390     3.2592  1268.0058 O.3      393 DG      0.0000
   1535 C3'        7.8807     4.2390  1269.6944 C.3      393 DG      0.0000
   1536 O3'        7.6559     5.6608  1269.8533 O.3      393 DG      0.0000
   1537 C2'        6.8696     3.3206  1270.3470 C.3      393 DG      0.0000
   1538 C1'        5.8006     3.2171  1269.2654 C.3      393 DG      0.0000
   1539 N9         4.9844     2.0098  1269.4350 N.ar     393 DG      0.0000
   1540 C8         5.3853     0.7462  1269.7712 C.ar     393 DG      0.0000
   1541 N7         4.4115    -0.1331  1269.8569 N.ar     393 DG      0.0000
   1542 C5         3.2846     0.6163  1269.5269 C.ar     393 DG      0.0000
   1543 C6         1.9132     0.2438  1269.4326 C.2      393 DG      0.0000
   1544 O6         1.4074    -0.8720  1269.6249 O.2      393 DG      0.0000
   1545 N1         1.0656     1.2749  1269.0975 N.am     393 DG      0.0000
   1546 C2         1.5212     2.5383  1268.8737 C.2      393 DG      0.0000
   1547 N2         0.5549     3.4130  1268.5649 N.pl3    393 DG      0.0000
   1548 N3         2.7900     2.9344  1268.9448 N.2      393 DG      0.0000
   1549 C4         3.6196     1.9287  1269.2713 C.ar     393 DG      0.0000
   1550 H5'        9.7404     3.9182  1267.3658 H        393 DG      0.0000
   1551 H5''       8.7098     2.5715  1266.8139 H        393 DG      0.0000
   1552 H4'        7.7099     4.8558  1267.6558 H        393 DG      0.0000
   1553 H3'        8.8804     3.9882  1270.0492 H        393 DG      0.0000
   1554 H2'        7.3043     2.3462  1270.5699 H        393 DG      0.0000
   1555 H2''       6.4617     3.7760  1271.2494 H        393 DG      0.0000
   1556 H1'        5.1532     4.0920  1269.3244 H        393 DG      0.0000
   1557 H8         6.4191     0.4911  1269.9518 H        393 DG      0.0000
   1558 H1         0.0763     1.0889  1269.0152 H        393 DG      0.0000
   1559 H21       -0.4063     3.1068  1268.5147 H        393 DG      0.0000
   1560 H22        0.7874     4.3788  1268.3823 H        393 DG      0.0000
   1561 P          7.8073     6.3630  1271.2417 P.3      394 DA      0.0000
   1562 OP1        9.1677     6.8691  1271.5970 O.co2    394 DA      0.0000
   1563 OP2        7.5217     5.1021  1272.1374 O.co2    394 DA      0.0000
   1564 O5'        6.5526     7.3003  1271.4908 O.3      394 DA      0.0000
   1565 C5'        5.7149     7.8472  1270.4618 C.3      394 DA      0.0000
   1566 C4'        4.2904     7.6096  1270.9361 C.3      394 DA      0.0000
   1567 O4'        3.9642     6.2393  1270.8457 O.3      394 DA      0.0000
   1568 C3'        3.9710     8.0489  1272.3651 C.3      394 DA      0.0000
   1569 O3'        2.7407     8.8002  1272.4174 O.3      394 DA      0.0000
   1570 C2'        3.8846     6.7060  1273.1006 C.3      394 DA      0.0000
   1571 C1'        3.1942     5.8837  1272.0230 C.3      394 DA      0.0000
   1572 N9         3.2585     4.4366  1272.2514 N.ar     394 DA      0.0000
   1573 C8         4.3389     3.6289  1272.4671 C.ar     394 DA      0.0000
   1574 N7         4.0320     2.3615  1272.6321 N.ar     394 DA      0.0000
   1575 C5         2.6526     2.3324  1272.4919 C.ar     394 DA      0.0000
   1576 C6         1.7295     1.2649  1272.5399 C.ar     394 DA      0.0000
   1577 N6         2.0602    -0.0098  1272.7596 N.pl3    394 DA      0.0000
   1578 N1         0.4228     1.6157  1272.3501 N.ar     394 DA      0.0000
   1579 C2         0.0655     2.9025  1272.1323 C.ar     394 DA      0.0000
   1580 N3         0.8777     3.9572  1272.0741 N.ar     394 DA      0.0000
   1581 C4         2.1595     3.5933  1272.2609 C.ar     394 DA      0.0000
   1582 H5'        5.8918     7.3376  1269.5146 H        394 DA      0.0000
   1583 H5''       5.9016     8.9157  1270.3540 H        394 DA      0.0000
   1584 H4'        3.6238     8.1531  1270.2663 H        394 DA      0.0000
   1585 H3'        4.7912     8.6441  1272.7666 H        394 DA      0.0000
   1586 H2'        4.8704     6.3111  1273.3461 H        394 DA      0.0000
   1587 H2''       3.2617     6.7864  1273.9915 H        394 DA      0.0000
   1588 H1'        2.1583     6.2031  1271.9085 H        394 DA      0.0000
   1589 H8         5.3532     3.9983  1272.4992 H        394 DA      0.0000
   1590 H2        -0.9879     3.0947  1271.9910 H        394 DA      0.0000
   1591 H61        2.9903    -0.3916  1272.6622 H        394 DA      0.0000
   1592 H62        1.3646    -0.7218  1272.5881 H        394 DA      0.0000
   1593 P          2.4592     9.9474  1273.5588 P.3      395 DA      0.0000
   1594 OP1        2.2622    11.2860  1272.8918 O.co2    395 DA      0.0000
   1595 OP2        3.6745     9.8266  1274.3898 O.co2    395 DA      0.0000
   1596 O5'        1.0067     9.5556  1274.0897 O.3      395 DA      0.0000
   1597 C5'       -0.1575     9.5420  1273.2654 C.3      395 DA      0.0000
   1598 C4'       -1.0932     8.4659  1273.7877 C.3      395 DA      0.0000
   1599 O4'       -0.4638     7.2161  1273.8158 O.3      395 DA      0.0000
   1600 C3'       -1.7174     8.6845  1275.1550 C.3      395 DA      0.0000
   1601 O3'       -3.1378     8.8024  1275.0772 O.3      395 DA      0.0000
   1602 C2'       -1.2060     7.4996  1275.9837 C.3      395 DA      0.0000
   1603 C1'       -0.8885     6.4508  1274.9899 C.3      395 DA      0.0000
   1604 N9         0.1760     5.4668  1275.2580 N.ar     395 DA      0.0000
   1605 C8         1.5336     5.6431  1275.3732 C.ar     395 DA      0.0000
   1606 N7         2.2070     4.5300  1275.5424 N.ar     395 DA      0.0000
   1607 C5         1.2286     3.5417  1275.5054 C.ar     395 DA      0.0000
   1608 C6         1.3076     2.1250  1275.6259 C.ar     395 DA      0.0000
   1609 N6         2.4214     1.4291  1275.8175 N.pl3    395 DA      0.0000
   1610 N1         0.1143     1.4542  1275.5277 N.ar     395 DA      0.0000
   1611 C2        -1.0527     2.1360  1275.3386 C.ar     395 DA      0.0000
   1612 N3        -1.1968     3.4519  1275.2308 N.ar     395 DA      0.0000
   1613 C4        -0.0166     4.0971  1275.3226 C.ar     395 DA      0.0000
   1614 H5'        0.1218     9.3203  1272.2353 H        395 DA      0.0000
   1615 H5''      -0.6517    10.5125  1273.3113 H        395 DA      0.0000
   1616 H4'       -1.9143     8.3892  1273.0750 H        395 DA      0.0000
   1617 H3'       -1.3146     9.6046  1275.5782 H        395 DA      0.0000
   1618 H2'       -0.3140     7.7799  1276.5440 H        395 DA      0.0000
   1619 H2''      -1.9839     7.1515  1276.6633 H        395 DA      0.0000
   1620 H1'       -1.8050     5.9146  1274.7439 H        395 DA      0.0000
   1621 H8         2.0053     6.6136  1275.3283 H        395 DA      0.0000
   1622 H2        -1.9531     1.5437  1275.2695 H        395 DA      0.0000
   1623 H61        3.2756     1.8583  1276.1437 H        395 DA      0.0000
   1624 H62        2.4146     0.4366  1275.6307 H        395 DA      0.0000
   1625 P         -4.0624     9.7378  1276.0334 P.3      396 DT      0.0000
   1626 OP1       -5.1477    10.4524  1275.2361 O.co2    396 DT      0.0000
   1627 OP2       -3.2396    10.6015  1276.8540 O.co2    396 DT      0.0000
   1628 O5'       -4.9408     8.6102  1276.8471 O.3      396 DT      0.0000
   1629 C5'       -5.3339     7.5254  1275.9020 C.3      396 DT      0.0000
   1630 C4'       -5.1372     6.2550  1276.6897 C.3      396 DT      0.0000
   1631 O4'       -3.7833     5.9116  1276.8817 O.3      396 DT      0.0000
   1632 C3'       -5.7334     6.3504  1278.1063 C.3      396 DT      0.0000
   1633 O3'       -7.0139     5.7469  1278.1080 O.3      396 DT      0.0000
   1634 C2'       -4.7022     5.6705  1279.0035 C.3      396 DT      0.0000
   1635 C1'       -3.8326     4.9680  1278.0389 C.3      396 DT      0.0000
   1636 N1        -2.4542     4.6529  1278.3787 N.am     396 DT      0.0000
   1637 C2        -2.1330     3.3061  1278.5166 C.2      396 DT      0.0000
   1638 O2        -3.0121     2.4586  1278.4286 O.2      396 DT      0.0000
   1639 N3        -0.8360     2.9761  1278.7706 N.am     396 DT      0.0000
   1640 C4         0.1529     3.9101  1278.8908 C.2      396 DT      0.0000
   1641 O4         1.3377     3.5227  1279.1459 O.2      396 DT      0.0000
   1642 C5        -0.1976     5.2898  1278.7192 C.2      396 DT      0.0000
   1643 C7         0.8579     6.3571  1278.8067 C.3      396 DT      0.0000
   1644 C6        -1.4778     5.6097  1278.4634 C.2      396 DT      0.0000
   1645 H5'       -6.3756     7.6351  1275.6003 H        396 DT      0.0000
   1646 H5''      -4.6840     7.5322  1275.0270 H        396 DT      0.0000
   1647 H4'       -5.6300     5.4394  1276.1606 H        396 DT      0.0000
   1648 H3'       -5.8263     7.3986  1278.3906 H        396 DT      0.0000
   1649 H2'       -4.1372     6.4053  1279.5770 H        396 DT      0.0000
   1650 H2''      -5.1873     4.9572  1279.6700 H        396 DT      0.0000
   1651 H1'       -4.3318     4.0524  1277.7216 H        396 DT      0.0000
   1652 H3        -0.5960     2.0005  1278.8743 H        396 DT      0.0000
   1653 H6        -1.7432     6.6470  1278.3213 H        396 DT      0.0000
   1654 H71        1.8231     5.8976  1279.0197 H        396 DT      0.0000
   1655 H72        0.9120     6.8927  1277.8589 H        396 DT      0.0000
   1656 H73        0.6037     7.0549  1279.6045 H        396 DT      0.0000
   1657 P         -8.1023     5.7661  1279.2146 P.3      397 DT      0.0000
   1658 OP1       -9.4999     5.4891  1278.6025 O.co2    397 DT      0.0000
   1659 OP2       -8.0326     7.1098  1279.8445 O.co2    397 DT      0.0000
   1660 O5'       -7.8009     4.4613  1280.0969 O.3      397 DT      0.0000
   1661 C5'       -8.0997     3.2305  1279.3851 C.3      397 DT      0.0000
   1662 C4'       -7.3967     2.1051  1280.0613 C.3      397 DT      0.0000
   1663 O4'       -5.9791     2.2166  1280.0380 O.3      397 DT      0.0000
   1664 C3'       -7.7998     1.8952  1281.5279 C.3      397 DT      0.0000
   1665 O3'       -7.9828     0.5171  1281.7920 O.3      397 DT      0.0000
   1666 C2'       -6.5388     2.4064  1282.2643 C.3      397 DT      0.0000
   1667 C1'       -5.5067     1.7629  1281.3607 C.3      397 DT      0.0000
   1668 N1        -4.1735     2.2529  1281.6584 N.am     397 DT      0.0000
   1669 C2        -3.1314     1.3416  1281.7132 C.2      397 DT      0.0000
   1670 O2        -3.3725     0.1483  1281.5248 O.2      397 DT      0.0000
   1671 N3        -1.8759     1.8108  1281.9791 N.am     397 DT      0.0000
   1672 C4        -1.6239     3.1323  1282.1861 C.2      397 DT      0.0000
   1673 O4        -0.4335     3.4949  1282.4094 O.2      397 DT      0.0000
   1674 C5        -2.7029     4.0613  1282.1211 C.2      397 DT      0.0000
   1675 C7        -2.5048     5.5342  1282.3310 C.3      397 DT      0.0000
   1676 C6        -3.9296     3.5833  1281.8599 C.2      397 DT      0.0000
   1677 H5'       -9.1749     3.0515  1279.3976 H        397 DT      0.0000
   1678 H5''      -7.7543     3.3110  1278.3544 H        397 DT      0.0000
   1679 H4'       -7.6565     1.1937  1279.5228 H        397 DT      0.0000
   1680 H3'       -8.6836     2.4768  1281.7904 H        397 DT      0.0000
   1681 H2'       -6.4703     3.4942  1282.2630 H        397 DT      0.0000
   1682 H2''      -6.4824     2.0073  1283.2770 H        397 DT      0.0000
   1683 H1'       -5.5474     0.6763  1281.4363 H        397 DT      0.0000
   1684 H3        -1.1091     1.1549  1282.0235 H        397 DT      0.0000
   1685 H6        -4.7561     4.2763  1281.8069 H        397 DT      0.0000
   1686 H71       -1.4520     5.7351  1282.5299 H        397 DT      0.0000
   1687 H72       -2.8143     6.0734  1281.4357 H        397 DT      0.0000
   1688 H73       -3.1042     5.8643  1283.1794 H        397 DT      0.0000
   1689 P         -9.1172    -0.3809  1282.3999 P.3      398 DC      0.0000
   1690 OP1       -9.7890    -1.2226  1281.3320 O.co2    398 DC      0.0000
   1691 OP2       -9.9968     0.5464  1283.1349 O.co2    398 DC      0.0000
   1692 O5'       -8.1316    -1.3840  1283.2259 O.3      398 DC      0.0000
   1693 C5'       -7.1736    -1.8451  1282.2037 C.3      398 DC      0.0000
   1694 C4'       -6.1762    -2.7264  1282.9002 C.3      398 DC      0.0000
   1695 O4'       -4.9672    -2.0779  1283.1471 O.3      398 DC      0.0000
   1696 C3'       -6.6705    -3.3683  1284.1916 C.3      398 DC      0.0000
   1697 O3'       -6.5613    -4.7833  1284.1120 O.3      398 DC      0.0000
   1698 C2'       -5.8314    -2.6350  1285.2404 C.3      398 DC      0.0000
   1699 C1'       -4.5744    -2.2919  1284.5440 C.3      398 DC      0.0000
   1700 N1        -3.9570    -1.0041  1284.8761 N.am     398 DC      0.0000
   1701 C2        -2.5879    -1.0338  1285.1319 C.2      398 DC      0.0000
   1702 O2        -1.9577    -2.0957  1285.1364 O.2      398 DC      0.0000
   1703 N3        -1.9695     0.1612  1285.4057 N.2      398 DC      0.0000
   1704 C4        -2.6585     1.3383  1285.3958 C.2      398 DC      0.0000
   1705 N4        -1.9714     2.4411  1285.6727 N.pl3    398 DC      0.0000
   1706 C5        -4.0430     1.3548  1285.1178 C.2      398 DC      0.0000
   1707 C6        -4.6362     0.1727  1284.8530 C.2      398 DC      0.0000
   1708 H5'       -7.6948    -2.4090  1281.4300 H        398 DC      0.0000
   1709 H5''      -6.6653    -0.9893  1281.7595 H        398 DC      0.0000
   1710 H4'       -5.9540    -3.5438  1282.2142 H        398 DC      0.0000
   1711 H3'       -7.7185    -3.1052  1284.3349 H        398 DC      0.0000
   1712 H2'       -6.3417    -1.7330  1285.5783 H        398 DC      0.0000
   1713 H2''      -5.6268    -3.2917  1286.0859 H        398 DC      0.0000
   1714 H1'       -3.8507    -3.1030  1284.6250 H        398 DC      0.0000
   1715 H5        -4.6046     2.2773  1285.1172 H        398 DC      0.0000
   1716 H6        -5.6894     0.1609  1284.6140 H        398 DC      0.0000
   1717 H41       -0.9830     2.3836  1285.8719 H        398 DC      0.0000
   1718 H42       -2.4376     3.3370  1285.6840 H        398 DC      0.0000
   1719 P         -7.3139    -5.8606  1285.0640 P.3      399 DA      0.0000
   1720 OP1       -7.4316    -7.1476  1284.2703 O.co2    399 DA      0.0000
   1721 OP2       -8.6399    -5.3091  1285.4095 O.co2    399 DA      0.0000
   1722 O5'       -6.3124    -6.0116  1286.3610 O.3      399 DA      0.0000
   1723 C5'       -4.9159    -6.3211  1286.0658 C.3      399 DA      0.0000
   1724 C4'       -4.1066    -6.3298  1287.3211 C.3      399 DA      0.0000
   1725 O4'       -3.3493    -5.1403  1287.5632 O.3      399 DA      0.0000
   1726 C3'       -4.9066    -6.4762  1288.6263 C.3      399 DA      0.0000
   1727 O3'       -4.0203    -6.9200  1289.6562 O.3      399 DA      0.0000
   1728 C2'       -5.3055    -5.0025  1288.8409 C.3      399 DA      0.0000
   1729 C1'       -3.9028    -4.4135  1288.6576 C.3      399 DA      0.0000
   1730 N9        -3.9998    -2.9667  1288.5633 N.ar     399 DA      0.0000
   1731 C8        -5.0927    -2.1531  1288.4475 C.ar     399 DA      0.0000
   1732 N7        -4.8257    -0.8595  1288.4289 N.ar     399 DA      0.0000
   1733 C5        -3.4427    -0.8205  1288.5364 C.ar     399 DA      0.0000
   1734 C6        -2.5234     0.2569  1288.5709 C.ar     399 DA      0.0000
   1735 N6        -2.8596     1.5314  1288.4857 N.pl3    399 DA      0.0000
   1736 N1        -1.2068    -0.0800  1288.7035 N.ar     399 DA      0.0000
   1737 C2        -0.8133    -1.3894  1288.7837 C.ar     399 DA      0.0000
   1738 N3        -1.6141    -2.4520  1288.7538 N.ar     399 DA      0.0000
   1739 C4        -2.9171    -2.0988  1288.6308 C.ar     399 DA      0.0000
   1740 H5'       -4.8577    -7.3023  1285.5946 H        399 DA      0.0000
   1741 H5''      -4.5164    -5.5699  1285.3845 H        399 DA      0.0000
   1742 H4'       -3.4080    -7.1643  1287.2622 H        399 DA      0.0000
   1743 H3'       -5.7720    -7.1290  1288.5126 H        399 DA      0.0000
   1744 H2'       -6.0107    -4.6460  1288.0901 H        399 DA      0.0000
   1745 H2''      -5.6796    -4.8339  1289.8508 H        399 DA      0.0000
   1746 H1'       -3.3203    -4.6527  1289.5473 H        399 DA      0.0000
   1747 H8        -6.0988    -2.5391  1288.3765 H        399 DA      0.0000
   1748 H2         0.2458    -1.5771  1288.8801 H        399 DA      0.0000
   1749 H61       -2.3767     2.4000  1288.6657 H        399 DA      0.0000
   1750 H62       -3.8097     1.6675  1288.1709 H        399 DA      0.0000
   1751 P         -3.6095    -8.4601  1289.7967 P.3      400 DC      0.0000
   1752 OP1       -3.8410    -9.2458  1288.5516 O.co2    400 DC      0.0000
   1753 OP2       -4.4704    -8.9150  1290.9396 O.co2    400 DC      0.0000
   1754 O5'       -2.0506    -8.3971  1290.0799 O.3      400 DC      0.0000
   1755 C5'       -1.0889    -8.2457  1288.9921 C.3      400 DC      0.0000
   1756 C4'        0.0597    -7.5154  1289.6971 C.3      400 DC      0.0000
   1757 O4'       -0.3952    -6.2191  1290.0091 O.3      400 DC      0.0000
   1758 C3'        0.4927    -8.1686  1291.0070 C.3      400 DC      0.0000
   1759 O3'        1.9175    -8.4031  1291.0749 O.3      400 DC      0.0000
   1760 C2'       -0.0165    -7.2046  1292.0892 C.3      400 DC      0.0000
   1761 C1'        0.0592    -5.8960  1291.4130 C.3      400 DC      0.0000
   1762 N1        -0.8420    -4.8021  1291.7659 N.am     400 DC      0.0000
   1763 C2        -0.2700    -3.5315  1291.7390 C.2      400 DC      0.0000
   1764 O2         0.9229    -3.3475  1291.5321 O.2      400 DC      0.0000
   1765 N3        -1.0861    -2.4734  1291.9921 N.2      400 DC      0.0000
   1766 C4        -2.4130    -2.6173  1292.2255 C.2      400 DC      0.0000
   1767 N4        -3.1086    -1.5054  1292.4564 N.pl3    400 DC      0.0000
   1768 C5        -2.9877    -3.9180  1292.2320 C.2      400 DC      0.0000
   1769 C6        -2.1763    -4.9574  1291.9826 C.2      400 DC      0.0000
   1770 H5'       -0.7681    -9.2137  1288.6073 H        400 DC      0.0000
   1771 H5''      -1.5039    -7.6313  1288.1931 H        400 DC      0.0000
   1772 H4'        0.9148    -7.4483  1289.0244 H        400 DC      0.0000
   1773 H3'       -0.0258    -9.1215  1291.1129 H        400 DC      0.0000
   1774 H2'       -1.0412    -7.4408  1292.3762 H        400 DC      0.0000
   1775 H2''       0.6394    -7.2247  1292.9595 H        400 DC      0.0000
   1776 H1'        1.0899    -5.5415  1291.3998 H        400 DC      0.0000
   1777 H5        -4.0392    -4.0641  1292.4305 H        400 DC      0.0000
   1778 H6        -2.5969    -5.9516  1291.9528 H        400 DC      0.0000
   1779 H41       -2.6449    -0.6082  1292.4453 H        400 DC      0.0000
   1780 H42       -4.0998    -1.5593  1292.6425 H        400 DC      0.0000
   1781 P         -0.5429     8.4706  1294.0344 P.3      400 DG      0.0000
   1782 OP1       -0.7046     9.9467  1294.2132 O.co2    400 DG      0.0000
   1783 OP2       -1.4460     7.8988  1292.9496 O.co2    400 DG      0.0000
   1784 O5'        1.0513     8.1174  1293.8272 O.3      400 DG      0.0000
   1785 C5'        1.7905     7.4828  1294.9230 C.3      400 DG      0.0000
   1786 C4'        2.7482     6.4768  1294.2887 C.3      400 DG      0.0000
   1787 O4'        2.1800     5.1992  1294.1929 O.3      400 DG      0.0000
   1788 C3'        3.2123     6.8465  1292.8823 C.3      400 DG      0.0000
   1789 O3'        4.6028     6.5512  1292.6153 O.3      400 DG      0.0000
   1790 C2'        2.2772     6.0213  1291.9801 C.3      400 DG      0.0000
   1791 C1'        2.1343     4.7523  1292.8039 C.3      400 DG      0.0000
   1792 N9         0.8503     4.0844  1292.5306 N.ar     400 DG      0.0000
   1793 C8        -0.3868     4.6630  1292.3739 C.ar     400 DG      0.0000
   1794 N7        -1.3494     3.8070  1292.1555 N.ar     400 DG      0.0000
   1795 C5        -0.7065     2.5750  1292.1803 C.ar     400 DG      0.0000
   1796 C6        -1.2048     1.2540  1292.0238 C.2      400 DG      0.0000
   1797 O6        -2.3836     0.9262  1291.8270 O.2      400 DG      0.0000
   1798 N1        -0.2464     0.2746  1292.1107 N.am     400 DG      0.0000
   1799 C2         1.0627     0.5489  1292.3314 C.2      400 DG      0.0000
   1800 N2         1.8753    -0.5024  1292.3947 N.pl3    400 DG      0.0000
   1801 N3         1.5830     1.7721  1292.4891 N.2      400 DG      0.0000
   1802 C4         0.6421     2.7327  1292.4058 C.ar     400 DG      0.0000
   1803 H5'        2.3508     8.2331  1295.4807 H        400 DG      0.0000
   1804 H5''       1.0977     6.9670  1295.5879 H        400 DG      0.0000
   1805 H4'        3.6300     6.4052  1294.9254 H        400 DG      0.0000
   1806 H3'        3.0315     7.9078  1292.7118 H        400 DG      0.0000
   1807 H2'        1.3171     6.5171  1291.8374 H        400 DG      0.0000
   1808 H2''       2.7506     5.8099  1291.0213 H        400 DG      0.0000
   1809 H1'        2.9629     4.0745  1292.5986 H        400 DG      0.0000
   1810 H8        -0.5485     5.7295  1292.4266 H        400 DG      0.0000
   1811 H1        -0.5283    -0.6896  1292.0059 H        400 DG      0.0000
   1812 H21        1.5046    -1.4348  1292.2797 H        400 DG      0.0000
   1813 H22        2.8630    -0.3682  1292.5579 H        400 DG      0.0000
   1814 P          4.9578     6.2034  1291.0919 P.3      399 DT      0.0000
   1815 OP1        6.3670     6.5587  1290.7010 O.co2    399 DT      0.0000
   1816 OP2        3.9727     7.0635  1290.3913 O.co2    399 DT      0.0000
   1817 O5'        4.7330     4.6224  1290.9610 O.3      399 DT      0.0000
   1818 C5'        5.8903     3.7675  1291.2286 C.3      399 DT      0.0000
   1819 C4'        5.7115     2.4696  1290.4715 C.3      399 DT      0.0000
   1820 O4'        4.3661     2.0274  1290.4443 O.3      399 DT      0.0000
   1821 C3'        6.1452     2.5632  1289.0168 C.3      399 DT      0.0000
   1822 O3'        6.8035     1.3770  1288.5217 O.3      399 DT      0.0000
   1823 C2'        4.8432     2.8284  1288.2940 C.3      399 DT      0.0000
   1824 C1'        3.9329     1.8927  1289.0721 C.3      399 DT      0.0000
   1825 N1         2.5640     2.4106  1288.9208 N.am     399 DT      0.0000
   1826 C2         1.5384     1.4768  1289.0276 C.2      399 DT      0.0000
   1827 O2         1.7934     0.2923  1289.2173 O.2      399 DT      0.0000
   1828 N3         0.2579     1.9397  1288.9074 N.am     399 DT      0.0000
   1829 C4        -0.0151     3.2569  1288.6898 C.2      399 DT      0.0000
   1830 O4        -1.2413     3.5940  1288.5922 O.2      399 DT      0.0000
   1831 C5         1.0561     4.1894  1288.5834 C.2      399 DT      0.0000
   1832 C7         0.7666     5.6452  1288.3545 C.3      399 DT      0.0000
   1833 C6         2.3048     3.7317  1288.7052 C.2      399 DT      0.0000
   1834 H5'        6.8006     4.2657  1290.8949 H        399 DT      0.0000
   1835 H5''       5.9554     3.5626  1292.2972 H        399 DT      0.0000
   1836 H4'        6.3137     1.7032  1290.9595 H        399 DT      0.0000
   1837 H3'        6.8069     3.4205  1288.8928 H        399 DT      0.0000
   1838 H2'        4.5314     3.8688  1288.3855 H        399 DT      0.0000
   1839 H2''       4.9087     2.5300  1287.2476 H        399 DT      0.0000
   1840 H1'        4.0165     0.8640  1288.7214 H        399 DT      0.0000
   1841 H3        -0.5086     1.2862  1288.9821 H        399 DT      0.0000
   1842 H6         3.1295     4.4250  1288.6311 H        399 DT      0.0000
   1843 H71       -0.3108     5.7954  1288.2858 H        399 DT      0.0000
   1844 H72        1.1624     6.2291  1289.1854 H        399 DT      0.0000
   1845 H73        1.2384     5.9679  1287.4263 H        399 DT      0.0000
   1846 P          8.1829     1.8728  1287.7433 P.3      398 DG      0.0000
   1847 OP1        9.3965     1.8520  1288.6146 O.co2    398 DG      0.0000
   1848 OP2        7.7308     3.2271  1287.3378 O.co2    398 DG      0.0000
   1849 O5'        8.3422     0.7061  1286.6625 O.3      398 DG      0.0000
   1850 C5'        8.8854    -0.5701  1287.0860 C.3      398 DG      0.0000
   1851 C4'        7.8553    -1.5995  1286.6383 C.3      398 DG      0.0000
   1852 O4'        6.5540    -1.1181  1286.9090 O.3      398 DG      0.0000
   1853 C3'        7.9156    -1.9458  1285.1505 C.3      398 DG      0.0000
   1854 O3'        8.0858    -3.3364  1284.9420 O.3      398 DG      0.0000
   1855 C2'        6.6442    -1.3489  1284.5738 C.3      398 DG      0.0000
   1856 C1'        5.7090    -1.3462  1285.7600 C.3      398 DG      0.0000
   1857 N9         4.7097    -0.2816  1285.6364 N.ar     398 DG      0.0000
   1858 C8         4.9146     1.0597  1285.4775 C.ar     398 DG      0.0000
   1859 N7         3.8074     1.7570  1285.3995 N.ar     398 DG      0.0000
   1860 C5         2.7993     0.8073  1285.5370 C.ar     398 DG      0.0000
   1861 C6         1.3842     0.9228  1285.5465 C.2      398 DG      0.0000
   1862 O6         0.7244     1.9524  1285.4474 O.2      398 DG      0.0000
   1863 N1         0.7183    -0.2605  1285.6954 N.am     398 DG      0.0000
   1864 C2         1.3785    -1.4581  1285.8283 C.2      398 DG      0.0000
   1865 N2         0.6065    -2.5367  1285.9640 N.pl3    398 DG      0.0000
   1866 N3         2.7035    -1.6361  1285.8326 N.2      398 DG      0.0000
   1867 C4         3.3498    -0.4549  1285.6819 C.ar     398 DG      0.0000
   1868 H5'        9.8468    -0.7559  1286.6073 H        398 DG      0.0000
   1869 H5''       8.9937    -0.5924  1288.1703 H        398 DG      0.0000
   1870 H4'        8.0104    -2.5136  1287.2113 H        398 DG      0.0000
   1871 H3'        8.7677    -1.4266  1284.7120 H        398 DG      0.0000
   1872 H2'        6.8166    -0.3369  1284.2075 H        398 DG      0.0000
   1873 H2''       6.2511    -1.9819  1283.7783 H        398 DG      0.0000
   1874 H1'        5.2145    -2.3137  1285.8470 H        398 DG      0.0000
   1875 H8         5.8973     1.5042  1285.4214 H        398 DG      0.0000
   1876 H1        -0.2915    -0.2550  1285.7083 H        398 DG      0.0000
   1877 H21       -0.3990    -2.4413  1285.9649 H        398 DG      0.0000
   1878 H22        1.0272    -3.4492  1286.0658 H        398 DG      0.0000
   1879 P          7.3524    -4.4358  1284.0757 P.3      397 DA      0.0000
   1880 OP1        7.2663    -5.7531  1284.8571 O.co2    397 DA      0.0000
   1881 OP2        8.1861    -4.6021  1282.8830 O.co2    397 DA      0.0000
   1882 O5'        5.8149    -3.9262  1283.9009 O.3      397 DA      0.0000
   1883 C5'        4.9802    -4.3099  1285.0574 C.3      397 DA      0.0000
   1884 C4'        3.9133    -5.2370  1284.5296 C.3      397 DA      0.0000
   1885 O4'        2.6917    -4.5794  1284.3073 O.3      397 DA      0.0000
   1886 C3'        4.2842    -5.8701  1283.1891 C.3      397 DA      0.0000
   1887 O3'        3.9217    -7.2281  1283.1139 O.3      397 DA      0.0000
   1888 C2'        3.6528    -4.9146  1282.1925 C.3      397 DA      0.0000
   1889 C1'        2.5304    -4.2248  1282.9163 C.3      397 DA      0.0000
   1890 N9         2.5512    -2.7694  1282.6908 N.ar     397 DA      0.0000
   1891 C8         3.6337    -1.9372  1282.5045 C.ar     397 DA      0.0000
   1892 N7         3.3206    -0.6770  1282.3086 N.ar     397 DA      0.0000
   1893 C5         1.9341    -0.6767  1282.3954 C.ar     397 DA      0.0000
   1894 C6         0.9902     0.3714  1282.2898 C.ar     397 DA      0.0000
   1895 N6         1.3145     1.6346  1282.0773 N.pl3    397 DA      0.0000
   1896 N1        -0.3179     0.0138  1282.4135 N.ar     397 DA      0.0000
   1897 C2        -0.6821    -1.2833  1282.6380 C.ar     397 DA      0.0000
   1898 N3         0.1539    -2.3130  1282.7539 N.ar     397 DA      0.0000
   1899 C4         1.4509    -1.9452  1282.6178 C.ar     397 DA      0.0000
   1900 H5'        5.5861    -4.8211  1285.8054 H        397 DA      0.0000
   1901 H5''       4.5198    -3.4236  1285.4941 H        397 DA      0.0000
   1902 H4'        3.7528    -6.0324  1285.2572 H        397 DA      0.0000
   1903 H3'        5.3664    -5.8053  1283.0760 H        397 DA      0.0000
   1904 H2'        3.2656    -5.4659  1281.3356 H        397 DA      0.0000
   1905 H2''       4.3887    -4.1816  1281.8620 H        397 DA      0.0000
   1906 H1'        1.5815    -4.6238  1282.5582 H        397 DA      0.0000
   1907 H8         4.6539    -2.2915  1282.5184 H        397 DA      0.0000
   1908 H2        -1.7379    -1.4912  1282.7293 H        397 DA      0.0000
   1909 H61        0.7191     2.3871  1282.3927 H        397 DA      0.0000
   1910 H62        2.1728     1.8515  1281.5911 H        397 DA      0.0000
   1911 P          3.3261    -8.0876  1281.9293 P.3      396 DA      0.0000
   1912 OP1        2.8498    -9.4754  1282.4492 O.co2    396 DA      0.0000
   1913 OP2        4.4780    -8.2875  1280.9956 O.co2    396 DA      0.0000
   1914 O5'        2.0236    -7.3576  1281.4266 O.3      396 DA      0.0000
   1915 C5'        0.7283    -7.7997  1281.8824 C.3      396 DA      0.0000
   1916 C4'       -0.3029    -6.9431  1281.1805 C.3      396 DA      0.0000
   1917 O4'        0.0539    -5.5956  1281.0598 O.3      396 DA      0.0000
   1918 C3'       -0.6437    -7.4306  1279.7730 C.3      396 DA      0.0000
   1919 O3'       -2.0092    -7.8871  1279.7415 O.3      396 DA      0.0000
   1920 C2'       -0.2479    -6.2583  1278.8734 C.3      396 DA      0.0000
   1921 C1'       -0.4054    -5.0687  1279.7712 C.3      396 DA      0.0000
   1922 N9         0.4317    -3.9117  1279.4716 N.ar     396 DA      0.0000
   1923 C8         1.7960    -3.8480  1279.2769 C.ar     396 DA      0.0000
   1924 N7         2.2460    -2.6303  1279.0714 N.ar     396 DA      0.0000
   1925 C5         1.1182    -1.8362  1279.1460 C.ar     396 DA      0.0000
   1926 C6         0.9359    -0.4415  1279.0125 C.ar     396 DA      0.0000
   1927 N6         1.9238     0.4145  1278.7693 N.pl3    396 DA      0.0000
   1928 N1        -0.3558    -0.0043  1279.1613 N.ar     396 DA      0.0000
   1929 C2        -1.3758    -0.8470  1279.4138 C.ar     396 DA      0.0000
   1930 N3        -1.2792    -2.1727  1279.5527 N.ar     396 DA      0.0000
   1931 C4        -0.0055    -2.6003  1279.4055 C.ar     396 DA      0.0000
   1932 H5'        0.5797    -8.8489  1281.6273 H        396 DA      0.0000
   1933 H5''       0.6492    -7.6656  1282.9612 H        396 DA      0.0000
   1934 H4'       -1.2183    -6.9861  1281.7706 H        396 DA      0.0000
   1935 H3'        0.0040    -8.2751  1279.5380 H        396 DA      0.0000
   1936 H2'        0.7830    -6.3574  1278.5335 H        396 DA      0.0000
   1937 H2''      -0.9247    -6.1857  1278.0221 H        396 DA      0.0000
   1938 H1'       -1.4532    -4.7744  1279.8323 H        396 DA      0.0000
   1939 H8         2.4352    -4.7183  1279.2918 H        396 DA      0.0000
   1940 H2        -2.3596    -0.4125  1279.5129 H        396 DA      0.0000
   1941 H61        1.7529     1.3656  1279.0633 H        396 DA      0.0000
   1942 H62        2.7846     0.1335  1278.3220 H        396 DA      0.0000
   1943 P         -2.6145    -8.4416  1278.3566 P.3      395 DT      0.0000
   1944 OP1       -3.9073    -9.1957  1278.4147 O.co2    395 DT      0.0000
   1945 OP2       -1.4432    -9.2162  1277.8439 O.co2    395 DT      0.0000
   1946 O5'       -2.9628    -6.9712  1277.6534 O.3      395 DT      0.0000
   1947 C5'       -3.5326    -6.0873  1278.6657 C.3      395 DT      0.0000
   1948 C4'       -4.3264    -5.0199  1277.9828 C.3      395 DT      0.0000
   1949 O4'       -3.6209    -3.8285  1277.8024 O.3      395 DT      0.0000
   1950 C3'       -4.8711    -5.4241  1276.6215 C.3      395 DT      0.0000
   1951 O3'       -6.1733    -4.8893  1276.3543 O.3      395 DT      0.0000
   1952 C2'       -3.7475    -4.8826  1275.7282 C.3      395 DT      0.0000
   1953 C1'       -3.4675    -3.5397  1276.3682 C.3      395 DT      0.0000
   1954 N1        -2.0729    -3.1177  1276.1383 N.am     395 DT      0.0000
   1955 C2        -1.8273    -1.7614  1276.0166 C.2      395 DT      0.0000
   1956 O2        -2.7465    -0.9418  1276.0534 O.2      395 DT      0.0000
   1957 N3        -0.5310    -1.3560  1275.8492 N.am     395 DT      0.0000
   1958 C4         0.4992    -2.2426  1275.8007 C.2      395 DT      0.0000
   1959 O4         1.6645    -1.7804  1275.6152 O.2      395 DT      0.0000
   1960 C5         0.2274    -3.6315  1275.9491 C.2      395 DT      0.0000
   1961 C7         1.3460    -4.6448  1275.8970 C.3      395 DT      0.0000
   1962 C6        -1.0431    -4.0108  1276.1221 C.2      395 DT      0.0000
   1963 H5'       -4.1822    -6.6597  1279.3278 H        395 DT      0.0000
   1964 H5''      -2.7303    -5.6312  1279.2458 H        395 DT      0.0000
   1965 H4'       -5.1821    -4.7958  1278.6198 H        395 DT      0.0000
   1966 H3'       -4.9019    -6.5113  1276.5495 H        395 DT      0.0000
   1967 H2'       -2.8696    -5.5280  1275.7588 H        395 DT      0.0000
   1968 H2''      -4.0970    -4.7558  1274.7036 H        395 DT      0.0000
   1969 H1'       -4.1757    -2.7813  1276.0343 H        395 DT      0.0000
   1970 H3        -0.3335    -0.3696  1275.7591 H        395 DT      0.0000
   1971 H6        -1.2609    -5.0604  1276.2535 H        395 DT      0.0000
   1972 H71        1.4134    -5.0609  1274.8918 H        395 DT      0.0000
   1973 H72        1.1440    -5.4455  1276.6086 H        395 DT      0.0000
   1974 H73        2.2878    -4.1598  1276.1535 H        395 DT      0.0000
   1975 P         -6.7726    -5.1982  1274.8643 P.3      394 DT      0.0000
   1976 OP1       -7.9916    -6.1107  1275.0123 O.co2    394 DT      0.0000
   1977 OP2       -5.6576    -5.9491  1274.1945 O.co2    394 DT      0.0000
   1978 O5'       -7.1330    -3.8390  1274.2123 O.3      394 DT      0.0000
   1979 C5'       -7.5396    -2.6952  1274.9637 C.3      394 DT      0.0000
   1980 C4'       -7.1212    -1.4702  1274.2157 C.3      394 DT      0.0000
   1981 O4'       -5.7561    -1.1555  1274.1587 O.3      394 DT      0.0000
   1982 C3'       -7.5872    -1.3368  1272.7497 C.3      394 DT      0.0000
   1983 O3'       -7.7910     0.0756  1272.6459 O.3      394 DT      0.0000
   1984 C2'       -6.3382    -1.7963  1271.9859 C.3      394 DT      0.0000
   1985 C1'       -5.3315    -0.9716  1272.7616 C.3      394 DT      0.0000
   1986 N1        -3.9345    -1.4019  1272.6555 N.am     394 DT      0.0000
   1987 C2        -2.9865    -0.3699  1272.6548 C.2      394 DT      0.0000
   1988 O2        -3.3330     0.8124  1272.6979 O.2      394 DT      0.0000
   1989 N3        -1.6718    -0.7344  1272.6014 N.am     394 DT      0.0000
   1990 C4        -1.2685    -2.0353  1272.5416 C.2      394 DT      0.0000
   1991 O4        -0.0243    -2.2707  1272.4792 O.2      394 DT      0.0000
   1992 C5        -2.2513    -3.0624  1272.5499 C.2      394 DT      0.0000
   1993 C7        -1.8173    -4.5120  1272.4885 C.3      394 DT      0.0000
   1994 C6        -3.5360    -2.7012  1272.6164 C.2      394 DT      0.0000
   1995 H5'       -8.6227    -2.7005  1275.0859 H        394 DT      0.0000
   1996 H5''      -7.0598    -2.7095  1275.9423 H        394 DT      0.0000
   1997 H4'       -7.5870    -0.6376  1274.7430 H        394 DT      0.0000
   1998 H3'       -8.4772    -1.9229  1272.5209 H        394 DT      0.0000
   1999 H2'       -6.3726    -1.5267  1270.9303 H        394 DT      0.0000
   2000 H2''      -6.1626    -2.8640  1272.1175 H        394 DT      0.0000
   2001 H1'       -5.4185     0.0785  1272.4826 H        394 DT      0.0000
   2002 H3        -0.9684    -0.0097  1272.6063 H        394 DT      0.0000
   2003 H6        -4.2899    -3.4742  1272.6401 H        394 DT      0.0000
   2004 H71       -0.7297    -4.5645  1272.4396 H        394 DT      0.0000
   2005 H72       -2.2436    -4.9814  1271.6019 H        394 DT      0.0000
   2006 H73       -2.1666    -5.0339  1273.3794 H        394 DT      0.0000
   2007 P         -8.5177     0.8297  1271.4997 P.3      393 DC      0.0000
   2008 OP1       -9.5263     1.8053  1272.1088 O.co2    393 DC      0.0000
   2009 OP2       -9.2430    -0.2202  1270.7178 O.co2    393 DC      0.0000
   2010 O5'       -7.2635     1.5608  1270.7603 O.3      393 DC      0.0000
   2011 C5'       -6.7002     2.7032  1271.4848 C.3      393 DC      0.0000
   2012 C4'       -6.2428     3.6816  1270.4342 C.3      393 DC      0.0000
   2013 O4'       -4.8585     3.5927  1270.1890 O.3      393 DC      0.0000
   2014 C3'       -6.9189     3.5371  1269.0698 C.3      393 DC      0.0000
   2015 O3'       -7.0987     4.7648  1268.3605 O.3      393 DC      0.0000
   2016 C2'       -5.9669     2.5477  1268.3837 C.3      393 DC      0.0000
   2017 C1'       -4.6043     2.9693  1268.9303 C.3      393 DC      0.0000
   2018 N1        -3.7640     1.7545  1269.0481 N.am     393 DC      0.0000
   2019 C2        -2.3823     1.9391  1269.0653 C.2      393 DC      0.0000
   2020 O2        -1.8866     3.0722  1268.9967 O.2      393 DC      0.0000
   2021 N3        -1.6020     0.8193  1269.1686 N.2      393 DC      0.0000
   2022 C4        -2.1349    -0.4285  1269.2393 C.2      393 DC      0.0000
   2023 N4        -1.3320    -1.4900  1269.3412 N.pl3    393 DC      0.0000
   2024 C5        -3.5485    -0.5889  1269.2142 C.2      393 DC      0.0000
   2025 C6        -4.3142     0.5116  1269.1206 C.2      393 DC      0.0000
   2026 H5'       -7.4591     3.1589  1272.1207 H        393 DC      0.0000
   2027 H5''      -5.8520     2.3806  1272.0887 H        393 DC      0.0000
   2028 H4'       -6.4508     4.6860  1270.8030 H        393 DC      0.0000
   2029 H3'       -7.8896     3.0599  1269.2040 H        393 DC      0.0000
   2030 H2'       -6.0057     2.6511  1267.2993 H        393 DC      0.0000
   2031 H2''      -6.1988     1.5246  1268.6797 H        393 DC      0.0000
   2032 H1'       -4.1354     3.6811  1268.2509 H        393 DC      0.0000
   2033 H5        -3.9950    -1.5708  1269.2690 H        393 DC      0.0000
   2034 H6        -5.3891     0.4076  1269.1025 H        393 DC      0.0000
   2035 H41       -0.3300    -1.3651  1269.3619 H        393 DC      0.0000
   2036 H42       -1.7266    -2.4180  1269.3976 H        393 DC      0.0000
   2037 P         -6.9758     4.9638  1266.7285 P.3      392 DA      0.0000
   2038 OP1       -7.7674     6.1934  1266.3391 O.co2    392 DA      0.0000
   2039 OP2       -7.4847     3.6868  1266.1585 O.co2    392 DA      0.0000
   2040 O5'       -5.4236     5.2984  1266.5630 O.3      392 DA      0.0000
   2041 C5'       -4.9476     6.6208  1267.0284 C.3      392 DA      0.0000
   2042 C4'       -3.7263     6.8368  1266.1512 C.3      392 DA      0.0000
   2043 O4'       -2.7522     5.8200  1266.4185 O.3      392 DA      0.0000
   2044 C3'       -4.0228     6.7041  1264.6468 C.3      392 DA      0.0000
   2045 O3'       -2.9878     7.2688  1263.8577 O.3      392 DA      0.0000
   2046 C2'       -3.8911     5.1814  1264.4593 C.3      392 DA      0.0000
   2047 C1'       -2.5380     5.0721  1265.2139 C.3      392 DA      0.0000
   2048 N9        -2.3160     3.6371  1265.3594 N.ar     392 DA      0.0000
   2049 C8        -3.2855     2.6620  1265.4322 C.ar     392 DA      0.0000
   2050 N7        -2.7981     1.4521  1265.5469 N.ar     392 DA      0.0000
   2051 C5        -1.4065     1.6556  1265.5405 C.ar     392 DA      0.0000
   2052 C6        -0.3292     0.7328  1265.6404 C.ar     392 DA      0.0000
   2053 N6        -0.4909    -0.5879  1265.7633 N.pl3    392 DA      0.0000
   2054 N1         0.9068     1.3045  1265.6053 N.ar     392 DA      0.0000
   2055 C2         1.0715     2.6448  1265.4864 C.ar     392 DA      0.0000
   2056 N3         0.1080     3.5660  1265.3949 N.ar     392 DA      0.0000
   2057 C4        -1.1067     2.9902  1265.4224 C.ar     392 DA      0.0000
   2058 H5'       -5.6978     7.3938  1266.8617 H        392 DA      0.0000
   2059 H5''      -4.6641     6.5797  1268.0801 H        392 DA      0.0000
   2060 H4'       -3.2975     7.8180  1266.3551 H        392 DA      0.0000
   2061 H3'       -5.0104     7.0782  1264.3771 H        392 DA      0.0000
   2062 H2'       -4.6934     4.6224  1264.9409 H        392 DA      0.0000
   2063 H2''      -3.7885     4.9128  1263.4079 H        392 DA      0.0000
   2064 H1'       -1.7383     5.5218  1264.6255 H        392 DA      0.0000
   2065 H8        -4.3439     2.8743  1265.3982 H        392 DA      0.0000
   2066 H2         2.0889     3.0062  1265.4632 H        392 DA      0.0000
   2067 H61       -1.4202    -0.9827  1265.7880 H        392 DA      0.0000
   2068 H62        0.3161    -1.1913  1265.8314 H        392 DA      0.0000
   2069 P         -3.3196     8.3222  1262.7168 P.3      391 DC      0.0000
   2070 OP1       -3.4083     9.6233  1263.4971 O.co2    391 DC      0.0000
   2071 OP2       -4.5537     8.0009  1261.9912 O.co2    391 DC      0.0000
   2072 O5'       -2.0094     8.1344  1261.7409 O.3      391 DC      0.0000
   2073 C5'       -0.6947     8.2377  1262.4099 C.3      391 DC      0.0000
   2074 C4'        0.2478     7.2555  1261.7659 C.3      391 DC      0.0000
   2075 O4'        0.2744     5.9841  1262.4030 O.3      391 DC      0.0000
   2076 C3'       -0.0848     6.9877  1260.2881 C.3      391 DC      0.0000
   2077 O3'        1.0550     6.7325  1259.4768 O.3      391 DC      0.0000
   2078 C2'       -0.9006     5.6638  1260.4537 C.3      391 DC      0.0000
   2079 C1'        0.2096     5.0003  1261.3493 C.3      391 DC      0.0000
   2080 N1        -0.1989     3.6406  1261.5872 N.am     391 DC      0.0000
   2081 C2         0.7726     2.7051  1261.9044 C.2      391 DC      0.0000
   2082 O2         1.9922     2.8495  1262.0448 O.2      391 DC      0.0000
   2083 N3         0.3768     1.4114  1262.1026 N.2      391 DC      0.0000
   2084 C4        -0.9310     1.0279  1261.9866 C.2      391 DC      0.0000
   2085 N4        -1.2736    -0.2517  1262.2027 N.pl3    391 DC      0.0000
   2086 C5        -1.9163     1.9991  1261.6570 C.2      391 DC      0.0000
   2087 C6        -1.5046     3.2578  1261.4653 C.2      391 DC      0.0000
   2088 H5'       -0.3040     9.2492  1262.2985 H        391 DC      0.0000
   2089 H5''      -0.8028     8.0014  1263.4685 H        391 DC      0.0000
   2090 H4'        1.2527     7.6750  1261.8126 H        391 DC      0.0000
   2091 H3'       -0.7003     7.7837  1259.8691 H        391 DC      0.0000
   2092 H2'       -1.8502     5.8013  1260.9708 H        391 DC      0.0000
   2093 H2''      -1.0252     5.1408  1259.5055 H        391 DC      0.0000
   2094 H1'        1.1537     4.9989  1260.8044 H        391 DC      0.0000
   2095 H5        -2.9584     1.7305  1261.5648 H        391 DC      0.0000
   2096 H6        -2.2383     4.0053  1261.2020 H        391 DC      0.0000
   2097 H41       -0.5655    -0.9305  1262.4432 H        391 DC      0.0000
   2098 H42       -2.2397    -0.5359  1262.1247 H        391 DC      0.0000
@<TRIPOS>BOND
     1      9     31 1
     2     39     63 1
     3    101    126 1
     4    134    158 1
     5      1      2 1
     6      1      3 1
     7      1      4 1
     8      4      5 1
     9      5      6 1
    10      6      7 1
    11      6      8 1
    12      7     11 1
    13      8      9 1
    14      8     10 1
    15     10     11 1
    16     11     12 1
    17     12     13 am
    18     12     19 1
    19     13     14 2
    20     13     15 1
    21     15     16 2
    22     16     17 2
    23     16     18 2
    24     18     19 2
    25     31     32 1
    26     31     33 1
    27     31     34 1
    28     34     35 1
    29     35     36 1
    30     36     37 1
    31     36     38 1
    32     37     41 1
    33     38     39 1
    34     38     40 1
    35     40     41 1
    36     41     42 1
    37     42     43 ar
    38     42     51 ar
    39     43     44 ar
    40     44     45 ar
    41     45     46 ar
    42     45     51 ar
    43     46     47 1
    44     46     48 ar
    45     48     49 ar
    46     49     50 ar
    47     50     51 ar
    48     63     64 1
    49     63     65 1
    50     63     66 1
    51     66     67 1
    52     67     68 1
    53     68     69 1
    54     68     70 1
    55     69     73 1
    56     70     71 1
    57     70     72 1
    58     72     73 1
    59     73     74 1
    60     74     75 am
    61     74     81 1
    62     75     76 2
    63     75     77 1
    64     77     78 2
    65     78     79 2
    66     78     80 2
    67     80     81 2
    68     93     94 1
    69     93     95 1
    70     93     96 1
    71     96     97 1
    72     97     98 1
    73     98     99 1
    74     98    100 1
    75     99    103 1
    76    100    101 1
    77    100    102 1
    78    102    103 1
    79    103    104 1
    80    104    105 ar
    81    104    114 ar
    82    105    106 ar
    83    106    107 ar
    84    107    108 1
    85    107    114 ar
    86    108    109 2
    87    108    110 am
    88    110    111 1
    89    111    112 2
    90    111    113 2
    91    113    114 1
    92    126    127 1
    93    126    128 1
    94    126    129 1
    95    129    130 1
    96    130    131 1
    97    131    132 1
    98    131    133 1
    99    132    136 1
   100    133    134 1
   101    133    135 1
   102    135    136 1
   103    136    137 1
   104    137    138 am
   105    137    145 1
   106    138    139 2
   107    138    140 am
   108    140    141 am
   109    141    142 2
   110    141    143 1
   111    143    144 1
   112    143    145 2
   113    158    159 1
   114    158    160 1
   115    158    161 1
   116    161    162 1
   117    162    163 1
   118    163    164 1
   119    163    165 1
   120    164    168 1
   121    165    166 1
   122    165    167 1
   123    167    168 1
   124    168    169 1
   125    169    170 ar
   126    169    179 ar
   127    170    171 ar
   128    171    172 ar
   129    172    173 1
   130    172    179 ar
   131    173    174 2
   132    173    175 am
   133    175    176 1
   134    176    177 2
   135    176    178 2
   136    178    179 1
   137     20      5 1
   138     21      5 1
   139     22      6 1
   140     23      8 1
   141     24     10 1
   142     25     10 1
   143     26     11 1
   144     27     18 1
   145     28     19 1
   146     52     35 1
   147     53     35 1
   148     54     36 1
   149     55     38 1
   150     56     40 1
   151     57     40 1
   152     58     41 1
   153     59     43 1
   154     60     49 1
   155     82     67 1
   156     83     67 1
   157     84     68 1
   158     85     70 1
   159     86     72 1
   160     87     72 1
   161     88     73 1
   162     89     80 1
   163     90     81 1
   164    115     97 1
   165    116     97 1
   166    117     98 1
   167    118    100 1
   168    119    102 1
   169    120    102 1
   170    121    103 1
   171    122    105 1
   172    123    110 1
   173    146    130 1
   174    147    130 1
   175    148    131 1
   176    149    133 1
   177    150    135 1
   178    151    135 1
   179    152    136 1
   180    153    140 1
   181    154    145 1
   182    180    162 1
   183    181    162 1
   184    182    163 1
   185    183    165 1
   186    184    167 1
   187    185    167 1
   188    186    168 1
   189    187    170 1
   190    188    175 1
   191     29     17 1
   192     30     17 1
   193     91     79 1
   194     92     79 1
   195    124    112 1
   196    125    112 1
   197    189    177 1
   198    190    177 1
   199     61     47 1
   200     62     47 1
   201    155    144 1
   202    156    144 1
   203    157    144 1
   204     71    191 1
   205     93    805 1
   206    199    224 1
   207    232    256 1
   208    264    289 1
   209    297    321 1
   210    329    353 1
   211    361    385 1
   212    393    417 1
   213    425    447 1
   214    455    479 1
   215    517    542 1
   216    550    574 1
   217    582    607 1
   218    615    639 1
   219    647    671 1
   220    679    703 1
   221    711    735 1
   222    743    765 1
   223    773    797 1
   224    191    192 1
   225    191    193 1
   226    191    194 1
   227    194    195 1
   228    195    196 1
   229    196    197 1
   230    196    198 1
   231    197    201 1
   232    198    199 1
   233    198    200 1
   234    200    201 1
   235    201    202 1
   236    202    203 ar
   237    202    212 ar
   238    203    204 ar
   239    204    205 ar
   240    205    206 1
   241    205    212 ar
   242    206    207 2
   243    206    208 am
   244    208    209 1
   245    209    210 2
   246    209    211 2
   247    211    212 1
   248    224    225 1
   249    224    226 1
   250    224    227 1
   251    227    228 1
   252    228    229 1
   253    229    230 1
   254    229    231 1
   255    230    234 1
   256    231    232 1
   257    231    233 1
   258    233    234 1
   259    234    235 1
   260    235    236 am
   261    235    243 1
   262    236    237 2
   263    236    238 am
   264    238    239 am
   265    239    240 2
   266    239    241 1
   267    241    242 1
   268    241    243 2
   269    256    257 1
   270    256    258 1
   271    256    259 1
   272    259    260 1
   273    260    261 1
   274    261    262 1
   275    261    263 1
   276    262    266 1
   277    263    264 1
   278    263    265 1
   279    265    266 1
   280    266    267 1
   281    267    268 ar
   282    267    277 ar
   283    268    269 ar
   284    269    270 ar
   285    270    271 1
   286    270    277 ar
   287    271    272 2
   288    271    273 am
   289    273    274 1
   290    274    275 2
   291    274    276 2
   292    276    277 1
   293    289    290 1
   294    289    291 1
   295    289    292 1
   296    292    293 1
   297    293    294 1
   298    294    295 1
   299    294    296 1
   300    295    299 1
   301    296    297 1
   302    296    298 1
   303    298    299 1
   304    299    300 1
   305    300    301 ar
   306    300    309 ar
   307    301    302 ar
   308    302    303 ar
   309    303    304 ar
   310    303    309 ar
   311    304    305 1
   312    304    306 ar
   313    306    307 ar
   314    307    308 ar
   315    308    309 ar
   316    321    322 1
   317    321    323 1
   318    321    324 1
   319    324    325 1
   320    325    326 1
   321    326    327 1
   322    326    328 1
   323    327    331 1
   324    328    329 1
   325    328    330 1
   326    330    331 1
   327    331    332 1
   328    332    333 ar
   329    332    341 ar
   330    333    334 ar
   331    334    335 ar
   332    335    336 ar
   333    335    341 ar
   334    336    337 1
   335    336    338 ar
   336    338    339 ar
   337    339    340 ar
   338    340    341 ar
   339    353    354 1
   340    353    355 1
   341    353    356 1
   342    356    357 1
   343    357    358 1
   344    358    359 1
   345    358    360 1
   346    359    363 1
   347    360    361 1
   348    360    362 1
   349    362    363 1
   350    363    364 1
   351    364    365 am
   352    364    372 1
   353    365    366 2
   354    365    367 am
   355    367    368 am
   356    368    369 2
   357    368    370 1
   358    370    371 1
   359    370    372 2
   360    385    386 1
   361    385    387 1
   362    385    388 1
   363    388    389 1
   364    389    390 1
   365    390    391 1
   366    390    392 1
   367    391    395 1
   368    392    393 1
   369    392    394 1
   370    394    395 1
   371    395    396 1
   372    396    397 am
   373    396    404 1
   374    397    398 2
   375    397    399 am
   376    399    400 am
   377    400    401 2
   378    400    402 1
   379    402    403 1
   380    402    404 2
   381    417    418 1
   382    417    419 1
   383    417    420 1
   384    420    421 1
   385    421    422 1
   386    422    423 1
   387    422    424 1
   388    423    427 1
   389    424    425 1
   390    424    426 1
   391    426    427 1
   392    427    428 1
   393    428    429 am
   394    428    435 1
   395    429    430 2
   396    429    431 1
   397    431    432 2
   398    432    433 2
   399    432    434 2
   400    434    435 2
   401    447    448 1
   402    447    449 1
   403    447    450 1
   404    450    451 1
   405    451    452 1
   406    452    453 1
   407    452    454 1
   408    453    457 1
   409    454    455 1
   410    454    456 1
   411    456    457 1
   412    457    458 1
   413    458    459 ar
   414    458    467 ar
   415    459    460 ar
   416    460    461 ar
   417    461    462 ar
   418    461    467 ar
   419    462    463 1
   420    462    464 ar
   421    464    465 ar
   422    465    466 ar
   423    466    467 ar
   424    479    480 1
   425    479    481 1
   426    479    482 1
   427    482    483 1
   428    483    484 1
   429    484    485 1
   430    484    486 1
   431    485    489 1
   432    486    487 1
   433    486    488 1
   434    488    489 1
   435    489    490 1
   436    490    491 am
   437    490    497 1
   438    491    492 2
   439    491    493 1
   440    493    494 2
   441    494    495 2
   442    494    496 2
   443    496    497 2
   444    509    510 1
   445    509    511 1
   446    509    512 1
   447    512    513 1
   448    513    514 1
   449    514    515 1
   450    514    516 1
   451    515    519 1
   452    516    517 1
   453    516    518 1
   454    518    519 1
   455    519    520 1
   456    520    521 ar
   457    520    530 ar
   458    521    522 ar
   459    522    523 ar
   460    523    524 1
   461    523    530 ar
   462    524    525 2
   463    524    526 am
   464    526    527 1
   465    527    528 2
   466    527    529 2
   467    529    530 1
   468    542    543 1
   469    542    544 1
   470    542    545 1
   471    545    546 1
   472    546    547 1
   473    547    548 1
   474    547    549 1
   475    548    552 1
   476    549    550 1
   477    549    551 1
   478    551    552 1
   479    552    553 1
   480    553    554 am
   481    553    561 1
   482    554    555 2
   483    554    556 am
   484    556    557 am
   485    557    558 2
   486    557    559 1
   487    559    560 1
   488    559    561 2
   489    574    575 1
   490    574    576 1
   491    574    577 1
   492    577    578 1
   493    578    579 1
   494    579    580 1
   495    579    581 1
   496    580    584 1
   497    581    582 1
   498    581    583 1
   499    583    584 1
   500    584    585 1
   501    585    586 ar
   502    585    595 ar
   503    586    587 ar
   504    587    588 ar
   505    588    589 1
   506    588    595 ar
   507    589    590 2
   508    589    591 am
   509    591    592 1
   510    592    593 2
   511    592    594 2
   512    594    595 1
   513    607    608 1
   514    607    609 1
   515    607    610 1
   516    610    611 1
   517    611    612 1
   518    612    613 1
   519    612    614 1
   520    613    617 1
   521    614    615 1
   522    614    616 1
   523    616    617 1
   524    617    618 1
   525    618    619 ar
   526    618    627 ar
   527    619    620 ar
   528    620    621 ar
   529    621    622 ar
   530    621    627 ar
   531    622    623 1
   532    622    624 ar
   533    624    625 ar
   534    625    626 ar
   535    626    627 ar
   536    639    640 1
   537    639    641 1
   538    639    642 1
   539    642    643 1
   540    643    644 1
   541    644    645 1
   542    644    646 1
   543    645    649 1
   544    646    647 1
   545    646    648 1
   546    648    649 1
   547    649    650 1
   548    650    651 ar
   549    650    659 ar
   550    651    652 ar
   551    652    653 ar
   552    653    654 ar
   553    653    659 ar
   554    654    655 1
   555    654    656 ar
   556    656    657 ar
   557    657    658 ar
   558    658    659 ar
   559    671    672 1
   560    671    673 1
   561    671    674 1
   562    674    675 1
   563    675    676 1
   564    676    677 1
   565    676    678 1
   566    677    681 1
   567    678    679 1
   568    678    680 1
   569    680    681 1
   570    681    682 1
   571    682    683 am
   572    682    690 1
   573    683    684 2
   574    683    685 am
   575    685    686 am
   576    686    687 2
   577    686    688 1
   578    688    689 1
   579    688    690 2
   580    703    704 1
   581    703    705 1
   582    703    706 1
   583    706    707 1
   584    707    708 1
   585    708    709 1
   586    708    710 1
   587    709    713 1
   588    710    711 1
   589    710    712 1
   590    712    713 1
   591    713    714 1
   592    714    715 am
   593    714    722 1
   594    715    716 2
   595    715    717 am
   596    717    718 am
   597    718    719 2
   598    718    720 1
   599    720    721 1
   600    720    722 2
   601    735    736 1
   602    735    737 1
   603    735    738 1
   604    738    739 1
   605    739    740 1
   606    740    741 1
   607    740    742 1
   608    741    745 1
   609    742    743 1
   610    742    744 1
   611    744    745 1
   612    745    746 1
   613    746    747 am
   614    746    753 1
   615    747    748 2
   616    747    749 1
   617    749    750 2
   618    750    751 2
   619    750    752 2
   620    752    753 2
   621    765    766 1
   622    765    767 1
   623    765    768 1
   624    768    769 1
   625    769    770 1
   626    770    771 1
   627    770    772 1
   628    771    775 1
   629    772    773 1
   630    772    774 1
   631    774    775 1
   632    775    776 1
   633    776    777 ar
   634    776    785 ar
   635    777    778 ar
   636    778    779 ar
   637    779    780 ar
   638    779    785 ar
   639    780    781 1
   640    780    782 ar
   641    782    783 ar
   642    783    784 ar
   643    784    785 ar
   644    797    798 1
   645    797    799 1
   646    797    800 1
   647    800    801 1
   648    801    802 1
   649    802    803 1
   650    802    804 1
   651    803    807 1
   652    804    805 1
   653    804    806 1
   654    806    807 1
   655    807    808 1
   656    808    809 am
   657    808    815 1
   658    809    810 2
   659    809    811 1
   660    811    812 2
   661    812    813 2
   662    812    814 2
   663    814    815 2
   664    213    195 1
   665    214    195 1
   666    215    196 1
   667    216    198 1
   668    217    200 1
   669    218    200 1
   670    219    201 1
   671    220    203 1
   672    221    208 1
   673    244    228 1
   674    245    228 1
   675    246    229 1
   676    247    231 1
   677    248    233 1
   678    249    233 1
   679    250    234 1
   680    251    238 1
   681    252    243 1
   682    278    260 1
   683    279    260 1
   684    280    261 1
   685    281    263 1
   686    282    265 1
   687    283    265 1
   688    284    266 1
   689    285    268 1
   690    286    273 1
   691    310    293 1
   692    311    293 1
   693    312    294 1
   694    313    296 1
   695    314    298 1
   696    315    298 1
   697    316    299 1
   698    317    301 1
   699    318    307 1
   700    342    325 1
   701    343    325 1
   702    344    326 1
   703    345    328 1
   704    346    330 1
   705    347    330 1
   706    348    331 1
   707    349    333 1
   708    350    339 1
   709    373    357 1
   710    374    357 1
   711    375    358 1
   712    376    360 1
   713    377    362 1
   714    378    362 1
   715    379    363 1
   716    380    367 1
   717    381    372 1
   718    405    389 1
   719    406    389 1
   720    407    390 1
   721    408    392 1
   722    409    394 1
   723    410    394 1
   724    411    395 1
   725    412    399 1
   726    413    404 1
   727    436    421 1
   728    437    421 1
   729    438    422 1
   730    439    424 1
   731    440    426 1
   732    441    426 1
   733    442    427 1
   734    443    434 1
   735    444    435 1
   736    468    451 1
   737    469    451 1
   738    470    452 1
   739    471    454 1
   740    472    456 1
   741    473    456 1
   742    474    457 1
   743    475    459 1
   744    476    465 1
   745    498    483 1
   746    499    483 1
   747    500    484 1
   748    501    486 1
   749    502    488 1
   750    503    488 1
   751    504    489 1
   752    505    496 1
   753    506    497 1
   754    531    513 1
   755    532    513 1
   756    533    514 1
   757    534    516 1
   758    535    518 1
   759    536    518 1
   760    537    519 1
   761    538    521 1
   762    539    526 1
   763    562    546 1
   764    563    546 1
   765    564    547 1
   766    565    549 1
   767    566    551 1
   768    567    551 1
   769    568    552 1
   770    569    556 1
   771    570    561 1
   772    596    578 1
   773    597    578 1
   774    598    579 1
   775    599    581 1
   776    600    583 1
   777    601    583 1
   778    602    584 1
   779    603    586 1
   780    604    591 1
   781    628    611 1
   782    629    611 1
   783    630    612 1
   784    631    614 1
   785    632    616 1
   786    633    616 1
   787    634    617 1
   788    635    619 1
   789    636    625 1
   790    660    643 1
   791    661    643 1
   792    662    644 1
   793    663    646 1
   794    664    648 1
   795    665    648 1
   796    666    649 1
   797    667    651 1
   798    668    657 1
   799    691    675 1
   800    692    675 1
   801    693    676 1
   802    694    678 1
   803    695    680 1
   804    696    680 1
   805    697    681 1
   806    698    685 1
   807    699    690 1
   808    723    707 1
   809    724    707 1
   810    725    708 1
   811    726    710 1
   812    727    712 1
   813    728    712 1
   814    729    713 1
   815    730    717 1
   816    731    722 1
   817    754    739 1
   818    755    739 1
   819    756    740 1
   820    757    742 1
   821    758    744 1
   822    759    744 1
   823    760    745 1
   824    761    752 1
   825    762    753 1
   826    786    769 1
   827    787    769 1
   828    788    770 1
   829    789    772 1
   830    790    774 1
   831    791    774 1
   832    792    775 1
   833    793    777 1
   834    794    783 1
   835    816    801 1
   836    817    801 1
   837    818    802 1
   838    819    804 1
   839    820    806 1
   840    821    806 1
   841    822    807 1
   842    823    814 1
   843    824    815 1
   844    222    210 1
   845    223    210 1
   846    287    275 1
   847    288    275 1
   848    445    433 1
   849    446    433 1
   850    507    495 1
   851    508    495 1
   852    540    528 1
   853    541    528 1
   854    605    593 1
   855    606    593 1
   856    763    751 1
   857    764    751 1
   858    825    813 1
   859    826    813 1
   860    319    305 1
   861    320    305 1
   862    351    337 1
   863    352    337 1
   864    477    463 1
   865    478    463 1
   866    637    623 1
   867    638    623 1
   868    669    655 1
   869    670    655 1
   870    795    781 1
   871    796    781 1
   872    253    242 1
   873    254    242 1
   874    255    242 1
   875    382    371 1
   876    383    371 1
   877    384    371 1
   878    414    403 1
   879    415    403 1
   880    416    403 1
   881    571    560 1
   882    572    560 1
   883    573    560 1
   884    700    689 1
   885    701    689 1
   886    702    689 1
   887    732    721 1
   888    733    721 1
   889    734    721 1
   890    487    827 1
   891    509   1441 1
   892    835    860 1
   893    868    892 1
   894    900    925 1
   895    933    957 1
   896    965    989 1
   897    997   1021 1
   898   1029   1053 1
   899   1061   1083 1
   900   1091   1115 1
   901   1153   1178 1
   902   1186   1210 1
   903   1218   1243 1
   904   1251   1275 1
   905   1283   1307 1
   906   1315   1339 1
   907   1347   1371 1
   908   1379   1401 1
   909   1409   1433 1
   910    827    828 1
   911    827    829 1
   912    827    830 1
   913    830    831 1
   914    831    832 1
   915    832    833 1
   916    832    834 1
   917    833    837 1
   918    834    835 1
   919    834    836 1
   920    836    837 1
   921    837    838 1
   922    838    839 ar
   923    838    848 ar
   924    839    840 ar
   925    840    841 ar
   926    841    842 1
   927    841    848 ar
   928    842    843 2
   929    842    844 am
   930    844    845 1
   931    845    846 2
   932    845    847 2
   933    847    848 1
   934    860    861 1
   935    860    862 1
   936    860    863 1
   937    863    864 1
   938    864    865 1
   939    865    866 1
   940    865    867 1
   941    866    870 1
   942    867    868 1
   943    867    869 1
   944    869    870 1
   945    870    871 1
   946    871    872 am
   947    871    879 1
   948    872    873 2
   949    872    874 am
   950    874    875 am
   951    875    876 2
   952    875    877 1
   953    877    878 1
   954    877    879 2
   955    892    893 1
   956    892    894 1
   957    892    895 1
   958    895    896 1
   959    896    897 1
   960    897    898 1
   961    897    899 1
   962    898    902 1
   963    899    900 1
   964    899    901 1
   965    901    902 1
   966    902    903 1
   967    903    904 ar
   968    903    913 ar
   969    904    905 ar
   970    905    906 ar
   971    906    907 1
   972    906    913 ar
   973    907    908 2
   974    907    909 am
   975    909    910 1
   976    910    911 2
   977    910    912 2
   978    912    913 1
   979    925    926 1
   980    925    927 1
   981    925    928 1
   982    928    929 1
   983    929    930 1
   984    930    931 1
   985    930    932 1
   986    931    935 1
   987    932    933 1
   988    932    934 1
   989    934    935 1
   990    935    936 1
   991    936    937 ar
   992    936    945 ar
   993    937    938 ar
   994    938    939 ar
   995    939    940 ar
   996    939    945 ar
   997    940    941 1
   998    940    942 ar
   999    942    943 ar
  1000    943    944 ar
  1001    944    945 ar
  1002    957    958 1
  1003    957    959 1
  1004    957    960 1
  1005    960    961 1
  1006    961    962 1
  1007    962    963 1
  1008    962    964 1
  1009    963    967 1
  1010    964    965 1
  1011    964    966 1
  1012    966    967 1
  1013    967    968 1
  1014    968    969 ar
  1015    968    977 ar
  1016    969    970 ar
  1017    970    971 ar
  1018    971    972 ar
  1019    971    977 ar
  1020    972    973 1
  1021    972    974 ar
  1022    974    975 ar
  1023    975    976 ar
  1024    976    977 ar
  1025    989    990 1
  1026    989    991 1
  1027    989    992 1
  1028    992    993 1
  1029    993    994 1
  1030    994    995 1
  1031    994    996 1
  1032    995    999 1
  1033    996    997 1
  1034    996    998 1
  1035    998    999 1
  1036    999   1000 1
  1037   1000   1001 am
  1038   1000   1008 1
  1039   1001   1002 2
  1040   1001   1003 am
  1041   1003   1004 am
  1042   1004   1005 2
  1043   1004   1006 1
  1044   1006   1007 1
  1045   1006   1008 2
  1046   1021   1022 1
  1047   1021   1023 1
  1048   1021   1024 1
  1049   1024   1025 1
  1050   1025   1026 1
  1051   1026   1027 1
  1052   1026   1028 1
  1053   1027   1031 1
  1054   1028   1029 1
  1055   1028   1030 1
  1056   1030   1031 1
  1057   1031   1032 1
  1058   1032   1033 am
  1059   1032   1040 1
  1060   1033   1034 2
  1061   1033   1035 am
  1062   1035   1036 am
  1063   1036   1037 2
  1064   1036   1038 1
  1065   1038   1039 1
  1066   1038   1040 2
  1067   1053   1054 1
  1068   1053   1055 1
  1069   1053   1056 1
  1070   1056   1057 1
  1071   1057   1058 1
  1072   1058   1059 1
  1073   1058   1060 1
  1074   1059   1063 1
  1075   1060   1061 1
  1076   1060   1062 1
  1077   1062   1063 1
  1078   1063   1064 1
  1079   1064   1065 am
  1080   1064   1071 1
  1081   1065   1066 2
  1082   1065   1067 1
  1083   1067   1068 2
  1084   1068   1069 2
  1085   1068   1070 2
  1086   1070   1071 2
  1087   1083   1084 1
  1088   1083   1085 1
  1089   1083   1086 1
  1090   1086   1087 1
  1091   1087   1088 1
  1092   1088   1089 1
  1093   1088   1090 1
  1094   1089   1093 1
  1095   1090   1091 1
  1096   1090   1092 1
  1097   1092   1093 1
  1098   1093   1094 1
  1099   1094   1095 ar
  1100   1094   1103 ar
  1101   1095   1096 ar
  1102   1096   1097 ar
  1103   1097   1098 ar
  1104   1097   1103 ar
  1105   1098   1099 1
  1106   1098   1100 ar
  1107   1100   1101 ar
  1108   1101   1102 ar
  1109   1102   1103 ar
  1110   1115   1116 1
  1111   1115   1117 1
  1112   1115   1118 1
  1113   1118   1119 1
  1114   1119   1120 1
  1115   1120   1121 1
  1116   1120   1122 1
  1117   1121   1125 1
  1118   1122   1123 1
  1119   1122   1124 1
  1120   1124   1125 1
  1121   1125   1126 1
  1122   1126   1127 am
  1123   1126   1133 1
  1124   1127   1128 2
  1125   1127   1129 1
  1126   1129   1130 2
  1127   1130   1131 2
  1128   1130   1132 2
  1129   1132   1133 2
  1130   1145   1146 1
  1131   1145   1147 1
  1132   1145   1148 1
  1133   1148   1149 1
  1134   1149   1150 1
  1135   1150   1151 1
  1136   1150   1152 1
  1137   1151   1155 1
  1138   1152   1153 1
  1139   1152   1154 1
  1140   1154   1155 1
  1141   1155   1156 1
  1142   1156   1157 ar
  1143   1156   1166 ar
  1144   1157   1158 ar
  1145   1158   1159 ar
  1146   1159   1160 1
  1147   1159   1166 ar
  1148   1160   1161 2
  1149   1160   1162 am
  1150   1162   1163 1
  1151   1163   1164 2
  1152   1163   1165 2
  1153   1165   1166 1
  1154   1178   1179 1
  1155   1178   1180 1
  1156   1178   1181 1
  1157   1181   1182 1
  1158   1182   1183 1
  1159   1183   1184 1
  1160   1183   1185 1
  1161   1184   1188 1
  1162   1185   1186 1
  1163   1185   1187 1
  1164   1187   1188 1
  1165   1188   1189 1
  1166   1189   1190 am
  1167   1189   1197 1
  1168   1190   1191 2
  1169   1190   1192 am
  1170   1192   1193 am
  1171   1193   1194 2
  1172   1193   1195 1
  1173   1195   1196 1
  1174   1195   1197 2
  1175   1210   1211 1
  1176   1210   1212 1
  1177   1210   1213 1
  1178   1213   1214 1
  1179   1214   1215 1
  1180   1215   1216 1
  1181   1215   1217 1
  1182   1216   1220 1
  1183   1217   1218 1
  1184   1217   1219 1
  1185   1219   1220 1
  1186   1220   1221 1
  1187   1221   1222 ar
  1188   1221   1231 ar
  1189   1222   1223 ar
  1190   1223   1224 ar
  1191   1224   1225 1
  1192   1224   1231 ar
  1193   1225   1226 2
  1194   1225   1227 am
  1195   1227   1228 1
  1196   1228   1229 2
  1197   1228   1230 2
  1198   1230   1231 1
  1199   1243   1244 1
  1200   1243   1245 1
  1201   1243   1246 1
  1202   1246   1247 1
  1203   1247   1248 1
  1204   1248   1249 1
  1205   1248   1250 1
  1206   1249   1253 1
  1207   1250   1251 1
  1208   1250   1252 1
  1209   1252   1253 1
  1210   1253   1254 1
  1211   1254   1255 ar
  1212   1254   1263 ar
  1213   1255   1256 ar
  1214   1256   1257 ar
  1215   1257   1258 ar
  1216   1257   1263 ar
  1217   1258   1259 1
  1218   1258   1260 ar
  1219   1260   1261 ar
  1220   1261   1262 ar
  1221   1262   1263 ar
  1222   1275   1276 1
  1223   1275   1277 1
  1224   1275   1278 1
  1225   1278   1279 1
  1226   1279   1280 1
  1227   1280   1281 1
  1228   1280   1282 1
  1229   1281   1285 1
  1230   1282   1283 1
  1231   1282   1284 1
  1232   1284   1285 1
  1233   1285   1286 1
  1234   1286   1287 ar
  1235   1286   1295 ar
  1236   1287   1288 ar
  1237   1288   1289 ar
  1238   1289   1290 ar
  1239   1289   1295 ar
  1240   1290   1291 1
  1241   1290   1292 ar
  1242   1292   1293 ar
  1243   1293   1294 ar
  1244   1294   1295 ar
  1245   1307   1308 1
  1246   1307   1309 1
  1247   1307   1310 1
  1248   1310   1311 1
  1249   1311   1312 1
  1250   1312   1313 1
  1251   1312   1314 1
  1252   1313   1317 1
  1253   1314   1315 1
  1254   1314   1316 1
  1255   1316   1317 1
  1256   1317   1318 1
  1257   1318   1319 am
  1258   1318   1326 1
  1259   1319   1320 2
  1260   1319   1321 am
  1261   1321   1322 am
  1262   1322   1323 2
  1263   1322   1324 1
  1264   1324   1325 1
  1265   1324   1326 2
  1266   1339   1340 1
  1267   1339   1341 1
  1268   1339   1342 1
  1269   1342   1343 1
  1270   1343   1344 1
  1271   1344   1345 1
  1272   1344   1346 1
  1273   1345   1349 1
  1274   1346   1347 1
  1275   1346   1348 1
  1276   1348   1349 1
  1277   1349   1350 1
  1278   1350   1351 am
  1279   1350   1358 1
  1280   1351   1352 2
  1281   1351   1353 am
  1282   1353   1354 am
  1283   1354   1355 2
  1284   1354   1356 1
  1285   1356   1357 1
  1286   1356   1358 2
  1287   1371   1372 1
  1288   1371   1373 1
  1289   1371   1374 1
  1290   1374   1375 1
  1291   1375   1376 1
  1292   1376   1377 1
  1293   1376   1378 1
  1294   1377   1381 1
  1295   1378   1379 1
  1296   1378   1380 1
  1297   1380   1381 1
  1298   1381   1382 1
  1299   1382   1383 am
  1300   1382   1389 1
  1301   1383   1384 2
  1302   1383   1385 1
  1303   1385   1386 2
  1304   1386   1387 2
  1305   1386   1388 2
  1306   1388   1389 2
  1307   1401   1402 1
  1308   1401   1403 1
  1309   1401   1404 1
  1310   1404   1405 1
  1311   1405   1406 1
  1312   1406   1407 1
  1313   1406   1408 1
  1314   1407   1411 1
  1315   1408   1409 1
  1316   1408   1410 1
  1317   1410   1411 1
  1318   1411   1412 1
  1319   1412   1413 ar
  1320   1412   1421 ar
  1321   1413   1414 ar
  1322   1414   1415 ar
  1323   1415   1416 ar
  1324   1415   1421 ar
  1325   1416   1417 1
  1326   1416   1418 ar
  1327   1418   1419 ar
  1328   1419   1420 ar
  1329   1420   1421 ar
  1330   1433   1434 1
  1331   1433   1435 1
  1332   1433   1436 1
  1333   1436   1437 1
  1334   1437   1438 1
  1335   1438   1439 1
  1336   1438   1440 1
  1337   1439   1443 1
  1338   1440   1441 1
  1339   1440   1442 1
  1340   1442   1443 1
  1341   1443   1444 1
  1342   1444   1445 am
  1343   1444   1451 1
  1344   1445   1446 2
  1345   1445   1447 1
  1346   1447   1448 2
  1347   1448   1449 2
  1348   1448   1450 2
  1349   1450   1451 2
  1350    849    831 1
  1351    850    831 1
  1352    851    832 1
  1353    852    834 1
  1354    853    836 1
  1355    854    836 1
  1356    855    837 1
  1357    856    839 1
  1358    857    844 1
  1359    880    864 1
  1360    881    864 1
  1361    882    865 1
  1362    883    867 1
  1363    884    869 1
  1364    885    869 1
  1365    886    870 1
  1366    887    874 1
  1367    888    879 1
  1368    914    896 1
  1369    915    896 1
  1370    916    897 1
  1371    917    899 1
  1372    918    901 1
  1373    919    901 1
  1374    920    902 1
  1375    921    904 1
  1376    922    909 1
  1377    946    929 1
  1378    947    929 1
  1379    948    930 1
  1380    949    932 1
  1381    950    934 1
  1382    951    934 1
  1383    952    935 1
  1384    953    937 1
  1385    954    943 1
  1386    978    961 1
  1387    979    961 1
  1388    980    962 1
  1389    981    964 1
  1390    982    966 1
  1391    983    966 1
  1392    984    967 1
  1393    985    969 1
  1394    986    975 1
  1395   1009    993 1
  1396   1010    993 1
  1397   1011    994 1
  1398   1012    996 1
  1399   1013    998 1
  1400   1014    998 1
  1401   1015    999 1
  1402   1016   1003 1
  1403   1017   1008 1
  1404   1041   1025 1
  1405   1042   1025 1
  1406   1043   1026 1
  1407   1044   1028 1
  1408   1045   1030 1
  1409   1046   1030 1
  1410   1047   1031 1
  1411   1048   1035 1
  1412   1049   1040 1
  1413   1072   1057 1
  1414   1073   1057 1
  1415   1074   1058 1
  1416   1075   1060 1
  1417   1076   1062 1
  1418   1077   1062 1
  1419   1078   1063 1
  1420   1079   1070 1
  1421   1080   1071 1
  1422   1104   1087 1
  1423   1105   1087 1
  1424   1106   1088 1
  1425   1107   1090 1
  1426   1108   1092 1
  1427   1109   1092 1
  1428   1110   1093 1
  1429   1111   1095 1
  1430   1112   1101 1
  1431   1134   1119 1
  1432   1135   1119 1
  1433   1136   1120 1
  1434   1137   1122 1
  1435   1138   1124 1
  1436   1139   1124 1
  1437   1140   1125 1
  1438   1141   1132 1
  1439   1142   1133 1
  1440   1167   1149 1
  1441   1168   1149 1
  1442   1169   1150 1
  1443   1170   1152 1
  1444   1171   1154 1
  1445   1172   1154 1
  1446   1173   1155 1
  1447   1174   1157 1
  1448   1175   1162 1
  1449   1198   1182 1
  1450   1199   1182 1
  1451   1200   1183 1
  1452   1201   1185 1
  1453   1202   1187 1
  1454   1203   1187 1
  1455   1204   1188 1
  1456   1205   1192 1
  1457   1206   1197 1
  1458   1232   1214 1
  1459   1233   1214 1
  1460   1234   1215 1
  1461   1235   1217 1
  1462   1236   1219 1
  1463   1237   1219 1
  1464   1238   1220 1
  1465   1239   1222 1
  1466   1240   1227 1
  1467   1264   1247 1
  1468   1265   1247 1
  1469   1266   1248 1
  1470   1267   1250 1
  1471   1268   1252 1
  1472   1269   1252 1
  1473   1270   1253 1
  1474   1271   1255 1
  1475   1272   1261 1
  1476   1296   1279 1
  1477   1297   1279 1
  1478   1298   1280 1
  1479   1299   1282 1
  1480   1300   1284 1
  1481   1301   1284 1
  1482   1302   1285 1
  1483   1303   1287 1
  1484   1304   1293 1
  1485   1327   1311 1
  1486   1328   1311 1
  1487   1329   1312 1
  1488   1330   1314 1
  1489   1331   1316 1
  1490   1332   1316 1
  1491   1333   1317 1
  1492   1334   1321 1
  1493   1335   1326 1
  1494   1359   1343 1
  1495   1360   1343 1
  1496   1361   1344 1
  1497   1362   1346 1
  1498   1363   1348 1
  1499   1364   1348 1
  1500   1365   1349 1
  1501   1366   1353 1
  1502   1367   1358 1
  1503   1390   1375 1
  1504   1391   1375 1
  1505   1392   1376 1
  1506   1393   1378 1
  1507   1394   1380 1
  1508   1395   1380 1
  1509   1396   1381 1
  1510   1397   1388 1
  1511   1398   1389 1
  1512   1422   1405 1
  1513   1423   1405 1
  1514   1424   1406 1
  1515   1425   1408 1
  1516   1426   1410 1
  1517   1427   1410 1
  1518   1428   1411 1
  1519   1429   1413 1
  1520   1430   1419 1
  1521   1452   1437 1
  1522   1453   1437 1
  1523   1454   1438 1
  1524   1455   1440 1
  1525   1456   1442 1
  1526   1457   1442 1
  1527   1458   1443 1
  1528   1459   1450 1
  1529   1460   1451 1
  1530    858    846 1
  1531    859    846 1
  1532    923    911 1
  1533    924    911 1
  1534   1081   1069 1
  1535   1082   1069 1
  1536   1143   1131 1
  1537   1144   1131 1
  1538   1176   1164 1
  1539   1177   1164 1
  1540   1241   1229 1
  1541   1242   1229 1
  1542   1399   1387 1
  1543   1400   1387 1
  1544   1461   1449 1
  1545   1462   1449 1
  1546    955    941 1
  1547    956    941 1
  1548    987    973 1
  1549    988    973 1
  1550   1113   1099 1
  1551   1114   1099 1
  1552   1273   1259 1
  1553   1274   1259 1
  1554   1305   1291 1
  1555   1306   1291 1
  1556   1431   1417 1
  1557   1432   1417 1
  1558    889    878 1
  1559    890    878 1
  1560    891    878 1
  1561   1018   1007 1
  1562   1019   1007 1
  1563   1020   1007 1
  1564   1050   1039 1
  1565   1051   1039 1
  1566   1052   1039 1
  1567   1207   1196 1
  1568   1208   1196 1
  1569   1209   1196 1
  1570   1336   1325 1
  1571   1337   1325 1
  1572   1338   1325 1
  1573   1368   1357 1
  1574   1369   1357 1
  1575   1370   1357 1
  1576   1123   1463 1
  1577   1145   2077 1
  1578   1471   1496 1
  1579   1504   1528 1
  1580   1536   1561 1
  1581   1569   1593 1
  1582   1601   1625 1
  1583   1633   1657 1
  1584   1665   1689 1
  1585   1697   1719 1
  1586   1727   1751 1
  1587   1789   1814 1
  1588   1822   1846 1
  1589   1854   1879 1
  1590   1887   1911 1
  1591   1919   1943 1
  1592   1951   1975 1
  1593   1983   2007 1
  1594   2015   2037 1
  1595   2045   2069 1
  1596   1463   1464 1
  1597   1463   1465 1
  1598   1463   1466 1
  1599   1466   1467 1
  1600   1467   1468 1
  1601   1468   1469 1
  1602   1468   1470 1
  1603   1469   1473 1
  1604   1470   1471 1
  1605   1470   1472 1
  1606   1472   1473 1
  1607   1473   1474 1
  1608   1474   1475 ar
  1609   1474   1484 ar
  1610   1475   1476 ar
  1611   1476   1477 ar
  1612   1477   1478 1
  1613   1477   1484 ar
  1614   1478   1479 2
  1615   1478   1480 am
  1616   1480   1481 1
  1617   1481   1482 2
  1618   1481   1483 2
  1619   1483   1484 1
  1620   1496   1497 1
  1621   1496   1498 1
  1622   1496   1499 1
  1623   1499   1500 1
  1624   1500   1501 1
  1625   1501   1502 1
  1626   1501   1503 1
  1627   1502   1506 1
  1628   1503   1504 1
  1629   1503   1505 1
  1630   1505   1506 1
  1631   1506   1507 1
  1632   1507   1508 am
  1633   1507   1515 1
  1634   1508   1509 2
  1635   1508   1510 am
  1636   1510   1511 am
  1637   1511   1512 2
  1638   1511   1513 1
  1639   1513   1514 1
  1640   1513   1515 2
  1641   1528   1529 1
  1642   1528   1530 1
  1643   1528   1531 1
  1644   1531   1532 1
  1645   1532   1533 1
  1646   1533   1534 1
  1647   1533   1535 1
  1648   1534   1538 1
  1649   1535   1536 1
  1650   1535   1537 1
  1651   1537   1538 1
  1652   1538   1539 1
  1653   1539   1540 ar
  1654   1539   1549 ar
  1655   1540   1541 ar
  1656   1541   1542 ar
  1657   1542   1543 1
  1658   1542   1549 ar
  1659   1543   1544 2
  1660   1543   1545 am
  1661   1545   1546 1
  1662   1546   1547 2
  1663   1546   1548 2
  1664   1548   1549 1
  1665   1561   1562 1
  1666   1561   1563 1
  1667   1561   1564 1
  1668   1564   1565 1
  1669   1565   1566 1
  1670   1566   1567 1
  1671   1566   1568 1
  1672   1567   1571 1
  1673   1568   1569 1
  1674   1568   1570 1
  1675   1570   1571 1
  1676   1571   1572 1
  1677   1572   1573 ar
  1678   1572   1581 ar
  1679   1573   1574 ar
  1680   1574   1575 ar
  1681   1575   1576 ar
  1682   1575   1581 ar
  1683   1576   1577 1
  1684   1576   1578 ar
  1685   1578   1579 ar
  1686   1579   1580 ar
  1687   1580   1581 ar
  1688   1593   1594 1
  1689   1593   1595 1
  1690   1593   1596 1
  1691   1596   1597 1
  1692   1597   1598 1
  1693   1598   1599 1
  1694   1598   1600 1
  1695   1599   1603 1
  1696   1600   1601 1
  1697   1600   1602 1
  1698   1602   1603 1
  1699   1603   1604 1
  1700   1604   1605 ar
  1701   1604   1613 ar
  1702   1605   1606 ar
  1703   1606   1607 ar
  1704   1607   1608 ar
  1705   1607   1613 ar
  1706   1608   1609 1
  1707   1608   1610 ar
  1708   1610   1611 ar
  1709   1611   1612 ar
  1710   1612   1613 ar
  1711   1625   1626 1
  1712   1625   1627 1
  1713   1625   1628 1
  1714   1628   1629 1
  1715   1629   1630 1
  1716   1630   1631 1
  1717   1630   1632 1
  1718   1631   1635 1
  1719   1632   1633 1
  1720   1632   1634 1
  1721   1634   1635 1
  1722   1635   1636 1
  1723   1636   1637 am
  1724   1636   1644 1
  1725   1637   1638 2
  1726   1637   1639 am
  1727   1639   1640 am
  1728   1640   1641 2
  1729   1640   1642 1
  1730   1642   1643 1
  1731   1642   1644 2
  1732   1657   1658 1
  1733   1657   1659 1
  1734   1657   1660 1
  1735   1660   1661 1
  1736   1661   1662 1
  1737   1662   1663 1
  1738   1662   1664 1
  1739   1663   1667 1
  1740   1664   1665 1
  1741   1664   1666 1
  1742   1666   1667 1
  1743   1667   1668 1
  1744   1668   1669 am
  1745   1668   1676 1
  1746   1669   1670 2
  1747   1669   1671 am
  1748   1671   1672 am
  1749   1672   1673 2
  1750   1672   1674 1
  1751   1674   1675 1
  1752   1674   1676 2
  1753   1689   1690 1
  1754   1689   1691 1
  1755   1689   1692 1
  1756   1692   1693 1
  1757   1693   1694 1
  1758   1694   1695 1
  1759   1694   1696 1
  1760   1695   1699 1
  1761   1696   1697 1
  1762   1696   1698 1
  1763   1698   1699 1
  1764   1699   1700 1
  1765   1700   1701 am
  1766   1700   1707 1
  1767   1701   1702 2
  1768   1701   1703 1
  1769   1703   1704 2
  1770   1704   1705 2
  1771   1704   1706 2
  1772   1706   1707 2
  1773   1719   1720 1
  1774   1719   1721 1
  1775   1719   1722 1
  1776   1722   1723 1
  1777   1723   1724 1
  1778   1724   1725 1
  1779   1724   1726 1
  1780   1725   1729 1
  1781   1726   1727 1
  1782   1726   1728 1
  1783   1728   1729 1
  1784   1729   1730 1
  1785   1730   1731 ar
  1786   1730   1739 ar
  1787   1731   1732 ar
  1788   1732   1733 ar
  1789   1733   1734 ar
  1790   1733   1739 ar
  1791   1734   1735 1
  1792   1734   1736 ar
  1793   1736   1737 ar
  1794   1737   1738 ar
  1795   1738   1739 ar
  1796   1751   1752 1
  1797   1751   1753 1
  1798   1751   1754 1
  1799   1754   1755 1
  1800   1755   1756 1
  1801   1756   1757 1
  1802   1756   1758 1
  1803   1757   1761 1
  1804   1758   1759 1
  1805   1758   1760 1
  1806   1760   1761 1
  1807   1761   1762 1
  1808   1762   1763 am
  1809   1762   1769 1
  1810   1763   1764 2
  1811   1763   1765 1
  1812   1765   1766 2
  1813   1766   1767 2
  1814   1766   1768 2
  1815   1768   1769 2
  1816   1781   1782 1
  1817   1781   1783 1
  1818   1781   1784 1
  1819   1784   1785 1
  1820   1785   1786 1
  1821   1786   1787 1
  1822   1786   1788 1
  1823   1787   1791 1
  1824   1788   1789 1
  1825   1788   1790 1
  1826   1790   1791 1
  1827   1791   1792 1
  1828   1792   1793 ar
  1829   1792   1802 ar
  1830   1793   1794 ar
  1831   1794   1795 ar
  1832   1795   1796 1
  1833   1795   1802 ar
  1834   1796   1797 2
  1835   1796   1798 am
  1836   1798   1799 1
  1837   1799   1800 2
  1838   1799   1801 2
  1839   1801   1802 1
  1840   1814   1815 1
  1841   1814   1816 1
  1842   1814   1817 1
  1843   1817   1818 1
  1844   1818   1819 1
  1845   1819   1820 1
  1846   1819   1821 1
  1847   1820   1824 1
  1848   1821   1822 1
  1849   1821   1823 1
  1850   1823   1824 1
  1851   1824   1825 1
  1852   1825   1826 am
  1853   1825   1833 1
  1854   1826   1827 2
  1855   1826   1828 am
  1856   1828   1829 am
  1857   1829   1830 2
  1858   1829   1831 1
  1859   1831   1832 1
  1860   1831   1833 2
  1861   1846   1847 1
  1862   1846   1848 1
  1863   1846   1849 1
  1864   1849   1850 1
  1865   1850   1851 1
  1866   1851   1852 1
  1867   1851   1853 1
  1868   1852   1856 1
  1869   1853   1854 1
  1870   1853   1855 1
  1871   1855   1856 1
  1872   1856   1857 1
  1873   1857   1858 ar
  1874   1857   1867 ar
  1875   1858   1859 ar
  1876   1859   1860 ar
  1877   1860   1861 1
  1878   1860   1867 ar
  1879   1861   1862 2
  1880   1861   1863 am
  1881   1863   1864 1
  1882   1864   1865 2
  1883   1864   1866 2
  1884   1866   1867 1
  1885   1879   1880 1
  1886   1879   1881 1
  1887   1879   1882 1
  1888   1882   1883 1
  1889   1883   1884 1
  1890   1884   1885 1
  1891   1884   1886 1
  1892   1885   1889 1
  1893   1886   1887 1
  1894   1886   1888 1
  1895   1888   1889 1
  1896   1889   1890 1
  1897   1890   1891 ar
  1898   1890   1899 ar
  1899   1891   1892 ar
  1900   1892   1893 ar
  1901   1893   1894 ar
  1902   1893   1899 ar
  1903   1894   1895 1
  1904   1894   1896 ar
  1905   1896   1897 ar
  1906   1897   1898 ar
  1907   1898   1899 ar
  1908   1911   1912 1
  1909   1911   1913 1
  1910   1911   1914 1
  1911   1914   1915 1
  1912   1915   1916 1
  1913   1916   1917 1
  1914   1916   1918 1
  1915   1917   1921 1
  1916   1918   1919 1
  1917   1918   1920 1
  1918   1920   1921 1
  1919   1921   1922 1
  1920   1922   1923 ar
  1921   1922   1931 ar
  1922   1923   1924 ar
  1923   1924   1925 ar
  1924   1925   1926 ar
  1925   1925   1931 ar
  1926   1926   1927 1
  1927   1926   1928 ar
  1928   1928   1929 ar
  1929   1929   1930 ar
  1930   1930   1931 ar
  1931   1943   1944 1
  1932   1943   1945 1
  1933   1943   1946 1
  1934   1946   1947 1
  1935   1947   1948 1
  1936   1948   1949 1
  1937   1948   1950 1
  1938   1949   1953 1
  1939   1950   1951 1
  1940   1950   1952 1
  1941   1952   1953 1
  1942   1953   1954 1
  1943   1954   1955 am
  1944   1954   1962 1
  1945   1955   1956 2
  1946   1955   1957 am
  1947   1957   1958 am
  1948   1958   1959 2
  1949   1958   1960 1
  1950   1960   1961 1
  1951   1960   1962 2
  1952   1975   1976 1
  1953   1975   1977 1
  1954   1975   1978 1
  1955   1978   1979 1
  1956   1979   1980 1
  1957   1980   1981 1
  1958   1980   1982 1
  1959   1981   1985 1
  1960   1982   1983 1
  1961   1982   1984 1
  1962   1984   1985 1
  1963   1985   1986 1
  1964   1986   1987 am
  1965   1986   1994 1
  1966   1987   1988 2
  1967   1987   1989 am
  1968   1989   1990 am
  1969   1990   1991 2
  1970   1990   1992 1
  1971   1992   1993 1
  1972   1992   1994 2
  1973   2007   2008 1
  1974   2007   2009 1
  1975   2007   2010 1
  1976   2010   2011 1
  1977   2011   2012 1
  1978   2012   2013 1
  1979   2012   2014 1
  1980   2013   2017 1
  1981   2014   2015 1
  1982   2014   2016 1
  1983   2016   2017 1
  1984   2017   2018 1
  1985   2018   2019 am
  1986   2018   2025 1
  1987   2019   2020 2
  1988   2019   2021 1
  1989   2021   2022 2
  1990   2022   2023 2
  1991   2022   2024 2
  1992   2024   2025 2
  1993   2037   2038 1
  1994   2037   2039 1
  1995   2037   2040 1
  1996   2040   2041 1
  1997   2041   2042 1
  1998   2042   2043 1
  1999   2042   2044 1
  2000   2043   2047 1
  2001   2044   2045 1
  2002   2044   2046 1
  2003   2046   2047 1
  2004   2047   2048 1
  2005   2048   2049 ar
  2006   2048   2057 ar
  2007   2049   2050 ar
  2008   2050   2051 ar
  2009   2051   2052 ar
  2010   2051   2057 ar
  2011   2052   2053 1
  2012   2052   2054 ar
  2013   2054   2055 ar
  2014   2055   2056 ar
  2015   2056   2057 ar
  2016   2069   2070 1
  2017   2069   2071 1
  2018   2069   2072 1
  2019   2072   2073 1
  2020   2073   2074 1
  2021   2074   2075 1
  2022   2074   2076 1
  2023   2075   2079 1
  2024   2076   2077 1
  2025   2076   2078 1
  2026   2078   2079 1
  2027   2079   2080 1
  2028   2080   2081 am
  2029   2080   2087 1
  2030   2081   2082 2
  2031   2081   2083 1
  2032   2083   2084 2
  2033   2084   2085 2
  2034   2084   2086 2
  2035   2086   2087 2
  2036   1485   1467 1
  2037   1486   1467 1
  2038   1487   1468 1
  2039   1488   1470 1
  2040   1489   1472 1
  2041   1490   1472 1
  2042   1491   1473 1
  2043   1492   1475 1
  2044   1493   1480 1
  2045   1516   1500 1
  2046   1517   1500 1
  2047   1518   1501 1
  2048   1519   1503 1
  2049   1520   1505 1
  2050   1521   1505 1
  2051   1522   1506 1
  2052   1523   1510 1
  2053   1524   1515 1
  2054   1550   1532 1
  2055   1551   1532 1
  2056   1552   1533 1
  2057   1553   1535 1
  2058   1554   1537 1
  2059   1555   1537 1
  2060   1556   1538 1
  2061   1557   1540 1
  2062   1558   1545 1
  2063   1582   1565 1
  2064   1583   1565 1
  2065   1584   1566 1
  2066   1585   1568 1
  2067   1586   1570 1
  2068   1587   1570 1
  2069   1588   1571 1
  2070   1589   1573 1
  2071   1590   1579 1
  2072   1614   1597 1
  2073   1615   1597 1
  2074   1616   1598 1
  2075   1617   1600 1
  2076   1618   1602 1
  2077   1619   1602 1
  2078   1620   1603 1
  2079   1621   1605 1
  2080   1622   1611 1
  2081   1645   1629 1
  2082   1646   1629 1
  2083   1647   1630 1
  2084   1648   1632 1
  2085   1649   1634 1
  2086   1650   1634 1
  2087   1651   1635 1
  2088   1652   1639 1
  2089   1653   1644 1
  2090   1677   1661 1
  2091   1678   1661 1
  2092   1679   1662 1
  2093   1680   1664 1
  2094   1681   1666 1
  2095   1682   1666 1
  2096   1683   1667 1
  2097   1684   1671 1
  2098   1685   1676 1
  2099   1708   1693 1
  2100   1709   1693 1
  2101   1710   1694 1
  2102   1711   1696 1
  2103   1712   1698 1
  2104   1713   1698 1
  2105   1714   1699 1
  2106   1715   1706 1
  2107   1716   1707 1
  2108   1740   1723 1
  2109   1741   1723 1
  2110   1742   1724 1
  2111   1743   1726 1
  2112   1744   1728 1
  2113   1745   1728 1
  2114   1746   1729 1
  2115   1747   1731 1
  2116   1748   1737 1
  2117   1770   1755 1
  2118   1771   1755 1
  2119   1772   1756 1
  2120   1773   1758 1
  2121   1774   1760 1
  2122   1775   1760 1
  2123   1776   1761 1
  2124   1777   1768 1
  2125   1778   1769 1
  2126   1803   1785 1
  2127   1804   1785 1
  2128   1805   1786 1
  2129   1806   1788 1
  2130   1807   1790 1
  2131   1808   1790 1
  2132   1809   1791 1
  2133   1810   1793 1
  2134   1811   1798 1
  2135   1834   1818 1
  2136   1835   1818 1
  2137   1836   1819 1
  2138   1837   1821 1
  2139   1838   1823 1
  2140   1839   1823 1
  2141   1840   1824 1
  2142   1841   1828 1
  2143   1842   1833 1
  2144   1868   1850 1
  2145   1869   1850 1
  2146   1870   1851 1
  2147   1871   1853 1
  2148   1872   1855 1
  2149   1873   1855 1
  2150   1874   1856 1
  2151   1875   1858 1
  2152   1876   1863 1
  2153   1900   1883 1
  2154   1901   1883 1
  2155   1902   1884 1
  2156   1903   1886 1
  2157   1904   1888 1
  2158   1905   1888 1
  2159   1906   1889 1
  2160   1907   1891 1
  2161   1908   1897 1
  2162   1932   1915 1
  2163   1933   1915 1
  2164   1934   1916 1
  2165   1935   1918 1
  2166   1936   1920 1
  2167   1937   1920 1
  2168   1938   1921 1
  2169   1939   1923 1
  2170   1940   1929 1
  2171   1963   1947 1
  2172   1964   1947 1
  2173   1965   1948 1
  2174   1966   1950 1
  2175   1967   1952 1
  2176   1968   1952 1
  2177   1969   1953 1
  2178   1970   1957 1
  2179   1971   1962 1
  2180   1995   1979 1
  2181   1996   1979 1
  2182   1997   1980 1
  2183   1998   1982 1
  2184   1999   1984 1
  2185   2000   1984 1
  2186   2001   1985 1
  2187   2002   1989 1
  2188   2003   1994 1
  2189   2026   2011 1
  2190   2027   2011 1
  2191   2028   2012 1
  2192   2029   2014 1
  2193   2030   2016 1
  2194   2031   2016 1
  2195   2032   2017 1
  2196   2033   2024 1
  2197   2034   2025 1
  2198   2058   2041 1
  2199   2059   2041 1
  2200   2060   2042 1
  2201   2061   2044 1
  2202   2062   2046 1
  2203   2063   2046 1
  2204   2064   2047 1
  2205   2065   2049 1
  2206   2066   2055 1
  2207   2088   2073 1
  2208   2089   2073 1
  2209   2090   2074 1
  2210   2091   2076 1
  2211   2092   2078 1
  2212   2093   2078 1
  2213   2094   2079 1
  2214   2095   2086 1
  2215   2096   2087 1
  2216   1494   1482 1
  2217   1495   1482 1
  2218   1559   1547 1
  2219   1560   1547 1
  2220   1717   1705 1
  2221   1718   1705 1
  2222   1779   1767 1
  2223   1780   1767 1
  2224   1812   1800 1
  2225   1813   1800 1
  2226   1877   1865 1
  2227   1878   1865 1
  2228   2035   2023 1
  2229   2036   2023 1
  2230   2097   2085 1
  2231   2098   2085 1
  2232   1591   1577 1
  2233   1592   1577 1
  2234   1623   1609 1
  2235   1624   1609 1
  2236   1749   1735 1
  2237   1750   1735 1
  2238   1909   1895 1
  2239   1910   1895 1
  2240   1941   1927 1
  2241   1942   1927 1
  2242   2067   2053 1
  2243   2068   2053 1
  2244   1525   1514 1
  2245   1526   1514 1
  2246   1527   1514 1
  2247   1654   1643 1
  2248   1655   1643 1
  2249   1656   1643 1
  2250   1686   1675 1
  2251   1687   1675 1
  2252   1688   1675 1
  2253   1843   1832 1
  2254   1844   1832 1
  2255   1845   1832 1
  2256   1972   1961 1
  2257   1973   1961 1
  2258   1974   1961 1
  2259   2004   1993 1
  2260   2005   1993 1
  2261   2006   1993 1
@<TRIPOS>MOLECULE
dna-seg-12-bp34
2162 2330 1 0 0
BIOPOLYMER
NO_CHARGES


@<TRIPOS>ATOM
      1 P          4.1418    -9.1229  1296.0760 P.3      401 DG      0.0000
      2 OP1        4.0390   -10.6031  1296.0744 O.co2    401 DG      0.0000
      3 OP2        3.1510    -8.6110  1297.1316 O.co2    401 DG      0.0000
      4 O5'        5.5966    -8.5037  1296.2543 O.3      401 DG      0.0000
      5 C5'        6.4752    -7.9455  1295.2543 C.3      401 DG      0.0000
      6 C4'        6.9635    -6.6015  1295.7531 C.3      401 DG      0.0000
      7 O4'        6.1279    -5.5443  1295.3340 O.3      401 DG      0.0000
      8 C3'        7.1633    -6.4293  1297.2453 C.3      401 DG      0.0000
      9 O3'        8.5047    -5.9658  1297.5573 O.3      401 DG      0.0000
     10 C2'        6.0787    -5.4564  1297.6672 C.3      401 DG      0.0000
     11 C1'        5.8056    -4.6643  1296.4116 C.3      401 DG      0.0000
     12 N9         4.3960    -4.2334  1296.3825 N.ar     401 DG      0.0000
     13 C8         3.2553    -4.9660  1296.6114 C.ar     401 DG      0.0000
     14 N7         2.1440    -4.2707  1296.5217 N.ar     401 DG      0.0000
     15 C5         2.5812    -2.9872  1296.2047 C.ar     401 DG      0.0000
     16 C6         1.8765    -1.7791  1295.9788 C.2      401 DG      0.0000
     17 O6         0.6598    -1.5909  1296.0000 O.2      401 DG      0.0000
     18 N1         2.6587    -0.6926  1295.6973 N.am     401 DG      0.0000
     19 C2         3.9506    -0.7493  1295.6366 C.2      401 DG      0.0000
     20 N2         4.4338     0.3941  1295.3398 N.pl3    401 DG      0.0000
     21 N3         4.7337    -1.8891  1295.8454 N.2      401 DG      0.0000
     22 C4         3.9602    -2.9498  1296.1179 C.ar     401 DG      0.0000
     23 H5'        7.3238    -8.6109  1295.0956 H        401 DG      0.0000
     24 H5''       5.9310    -7.8147  1294.3190 H        401 DG      0.0000
     25 H4'        7.9348    -6.4323  1295.2884 H        401 DG      0.0000
     26 H3'        6.9942    -7.3862  1297.7393 H        401 DG      0.0000
     27 H2'        5.1850    -5.9878  1297.9942 H        401 DG      0.0000
     28 H2''       6.4424    -4.8012  1298.4587 H        401 DG      0.0000
     29 H1'        6.4570    -3.7909  1296.3796 H        401 DG      0.0000
     30 H8         3.2713    -6.0205  1296.8445 H        401 DG      0.0000
     31 H1         2.2072     0.1950  1295.5289 H        401 DG      0.0000
     32 H21        3.8172     1.1809  1295.1955 H        401 DG      0.0000
     33 H22        5.4328     0.5122  1295.2494 H        401 DG      0.0000
     34 P          8.9112    -5.4305  1298.9859 P.3      402 DT      0.0000
     35 OP1       10.2640    -5.8530  1299.4975 O.co2    402 DT      0.0000
     36 OP2        7.9044    -6.1464  1299.9045 O.co2    402 DT      0.0000
     37 O5'        8.6307    -3.9062  1299.0144 O.3      402 DT      0.0000
     38 C5'        9.6741    -2.9036  1298.8705 C.3      402 DT      0.0000
     39 C4'        8.9415    -1.5794  1298.9280 C.3      402 DT      0.0000
     40 O4'        7.5650    -1.7194  1298.6528 O.3      402 DT      0.0000
     41 C3'        8.9955    -0.8396  1300.2407 C.3      402 DT      0.0000
     42 O3'        9.7201     0.3848  1300.0525 O.3      402 DT      0.0000
     43 C2'        7.5416    -0.5776  1300.6329 C.3      402 DT      0.0000
     44 C1'        6.8786    -0.5972  1299.2802 C.3      402 DT      0.0000
     45 N1         5.4621    -0.9503  1299.3768 N.am     402 DT      0.0000
     46 C2         4.5484     0.0491  1299.1789 C.2      402 DT      0.0000
     47 O2         4.8796     1.2083  1298.9407 O.2      402 DT      0.0000
     48 N3         3.2249    -0.2911  1299.2600 N.am     402 DT      0.0000
     49 C4         2.8041    -1.5505  1299.5159 C.2      402 DT      0.0000
     50 O4         1.5563    -1.7102  1299.5611 O.2      402 DT      0.0000
     51 C5         3.7749    -2.5839  1299.7156 C.2      402 DT      0.0000
     52 C7         3.3515    -3.9893  1299.9955 C.3      402 DT      0.0000
     53 C6         5.0671    -2.2421  1299.6341 C.2      402 DT      0.0000
     54 H5'       10.3956    -2.9797  1299.6839 H        402 DT      0.0000
     55 H5''      10.1756    -3.0161  1297.9093 H        402 DT      0.0000
     56 H4'        9.3684    -0.9304  1298.1634 H        402 DT      0.0000
     57 H3'        9.4842    -1.4529  1300.9978 H        402 DT      0.0000
     58 H2'        7.1531    -1.3626  1301.2817 H        402 DT      0.0000
     59 H2''       7.4368     0.4007  1301.1022 H        402 DT      0.0000
     60 H1'        7.0326     0.3339  1298.7349 H        402 DT      0.0000
     61 H3         2.5320     0.4307  1299.1225 H        402 DT      0.0000
     62 H6         5.8208    -3.0029  1299.7744 H        402 DT      0.0000
     63 H71        3.4538    -4.5873  1299.0899 H        402 DT      0.0000
     64 H72        2.3111    -3.9972  1300.3202 H        402 DT      0.0000
     65 H73        3.9805    -4.4086  1300.7808 H        402 DT      0.0000
     66 P         10.6421     0.7820  1301.3324 P.3      403 DG      0.0000
     67 OP1       11.8444     1.3850  1300.6174 O.co2    403 DG      0.0000
     68 OP2       10.9448    -0.4217  1302.0860 O.co2    403 DG      0.0000
     69 O5'        9.6074     1.8875  1301.9420 O.3      403 DG      0.0000
     70 C5'        9.1262     2.7607  1300.8514 C.3      403 DG      0.0000
     71 C4'        7.9481     3.5304  1301.3714 C.3      403 DG      0.0000
     72 O4'        6.6870     2.9435  1301.1908 O.3      403 DG      0.0000
     73 C3'        8.0740     3.8582  1302.8794 C.3      403 DG      0.0000
     74 O3'        7.9173     5.2891  1303.0383 O.3      403 DG      0.0000
     75 C2'        7.0202     2.9891  1303.5320 C.3      403 DG      0.0000
     76 C1'        5.9475     2.9367  1302.4505 C.3      403 DG      0.0000
     77 N9         5.0746     1.7697  1302.6200 N.ar     403 DG      0.0000
     78 C8         5.4148     0.4885  1302.9562 C.ar     403 DG      0.0000
     79 N7         4.4002    -0.3435  1303.0419 N.ar     403 DG      0.0000
     80 C5         3.3103     0.4589  1302.7119 C.ar     403 DG      0.0000
     81 C6         1.9226     0.1522  1302.6176 C.2      403 DG      0.0000
     82 O6         1.3642    -0.9381  1302.8099 O.2      403 DG      0.0000
     83 N1         1.1252     1.2226  1302.2825 N.am     403 DG      0.0000
     84 C2         1.6405     2.4628  1302.0588 C.2      403 DG      0.0000
     85 N2         0.7171     3.3826  1301.7500 N.pl3    403 DG      0.0000
     86 N3         2.9268     2.7980  1302.1298 N.2      403 DG      0.0000
     87 C4         3.7075     1.7538  1302.4564 C.ar     403 DG      0.0000
     88 H5'        9.9162     3.4490  1300.5509 H        403 DG      0.0000
     89 H5''       8.8226     2.1530  1299.9990 H        403 DG      0.0000
     90 H4'        7.9328     4.4825  1300.8408 H        403 DG      0.0000
     91 H3'        9.0605     3.5599  1303.2342 H        403 DG      0.0000
     92 H2'        7.4079     1.9951  1303.7550 H        403 DG      0.0000
     93 H2''       6.6345     3.4634  1304.4344 H        403 DG      0.0000
     94 H1'        5.3425     3.8415  1302.5094 H        403 DG      0.0000
     95 H8         6.4352     0.1842  1303.1368 H        403 DG      0.0000
     96 H1         0.1281     1.0840  1302.2002 H        403 DG      0.0000
     97 H21       -0.2576     3.1227  1301.6997 H        403 DG      0.0000
     98 H22        0.9955     4.3362  1301.5673 H        403 DG      0.0000
     99 P          8.1020     5.9833  1304.4267 P.3      404 DA      0.0000
    100 OP1        9.4850     6.4239  1304.7821 O.co2    404 DA      0.0000
    101 OP2        7.7565     4.7374  1305.3225 O.co2    404 DA      0.0000
    102 O5'        6.8934     6.9793  1304.6758 O.3      404 DA      0.0000
    103 C5'        6.0828     7.5656  1303.6468 C.3      404 DA      0.0000
    104 C4'        4.6485     7.3963  1304.1211 C.3      404 DA      0.0000
    105 O4'        4.2574     6.0430  1304.0307 O.3      404 DA      0.0000
    106 C3'        4.3505     7.8503  1305.5502 C.3      404 DA      0.0000
    107 O3'        3.1574     8.6595  1305.6024 O.3      404 DA      0.0000
    108 C2'        4.2001     6.5130  1306.2856 C.3      404 DA      0.0000
    109 C1'        3.4712     5.7246  1305.2080 C.3      404 DA      0.0000
    110 N9         3.4665     4.2761  1305.4364 N.ar     404 DA      0.0000
    111 C8         4.5071     3.4178  1305.6522 C.ar     404 DA      0.0000
    112 N7         4.1401     2.1664  1305.8172 N.ar     404 DA      0.0000
    113 C5         2.7608     2.2032  1305.6770 C.ar     404 DA      0.0000
    114 C6         1.7879     1.1809  1305.7249 C.ar     404 DA      0.0000
    115 N6         2.0574    -0.1081  1305.9447 N.pl3    404 DA      0.0000
    116 N1         0.4994     1.5937  1305.5351 N.ar     404 DA      0.0000
    117 C2         0.2039     2.8961  1305.3174 C.ar     404 DA      0.0000
    118 N3         1.0655     3.9108  1305.2591 N.ar     404 DA      0.0000
    119 C4         2.3284     3.4862  1305.4460 C.ar     404 DA      0.0000
    120 H5'        6.2352     7.0482  1302.6996 H        404 DA      0.0000
    121 H5''       6.3202     8.6240  1303.5390 H        404 DA      0.0000
    122 H4'        4.0087     7.9709  1303.4513 H        404 DA      0.0000
    123 H3'        5.1982     8.4056  1305.9516 H        404 DA      0.0000
    124 H2'        5.1660     6.0715  1306.5311 H        404 DA      0.0000
    125 H2''       3.5818     6.6231  1307.1765 H        404 DA      0.0000
    126 H1'        2.4518     6.0931  1305.0935 H        404 DA      0.0000
    127 H8         5.5379     3.7384  1305.6843 H        404 DA      0.0000
    128 H2        -0.8391     3.1383  1305.1760 H        404 DA      0.0000
    129 H61        2.9682    -0.5338  1305.8473 H        404 DA      0.0000
    130 H62        1.3287    -0.7860  1305.7732 H        404 DA      0.0000
    131 P          2.9310     9.8188  1306.7439 P.3      405 DA      0.0000
    132 OP1        2.7981    11.1652  1306.0768 O.co2    405 DA      0.0000
    133 OP2        4.1391     9.6401  1307.5748 O.co2    405 DA      0.0000
    134 O5'        1.4615     9.4967  1307.2747 O.3      405 DA      0.0000
    135 C5'        0.2979     9.5387  1306.4504 C.3      405 DA      0.0000
    136 C4'       -0.6880     8.5084  1306.9727 C.3      405 DA      0.0000
    137 O4'       -0.1190     7.2300  1307.0009 O.3      405 DA      0.0000
    138 C3'       -1.3011     8.7565  1308.3400 C.3      405 DA      0.0000
    139 O3'       -2.7143     8.9420  1308.2622 O.3      405 DA      0.0000
    140 C2'       -0.8468     7.5486  1309.1688 C.3      405 DA      0.0000
    141 C1'       -0.5797     6.4859  1308.1749 C.3      405 DA      0.0000
    142 N9         0.4366     5.4521  1308.4430 N.ar     405 DA      0.0000
    143 C8         1.8010     5.5636  1308.5582 C.ar     405 DA      0.0000
    144 N7         2.4206     4.4196  1308.7275 N.ar     405 DA      0.0000
    145 C5         1.3962     3.4790  1308.6905 C.ar     405 DA      0.0000
    146 C6         1.4075     2.0601  1308.8109 C.ar     405 DA      0.0000
    147 N6         2.4868     1.3120  1309.0026 N.pl3    405 DA      0.0000
    148 N1         0.1835     1.4471  1308.7128 N.ar     405 DA      0.0000
    149 C2        -0.9495     2.1838  1308.5237 C.ar     405 DA      0.0000
    150 N3        -1.0307     3.5051  1308.4158 N.ar     405 DA      0.0000
    151 C4         0.1789     4.0933  1308.5077 C.ar     405 DA      0.0000
    152 H5'        0.5663     9.3039  1305.4204 H        405 DA      0.0000
    153 H5''      -0.1494    10.5316  1306.4964 H        405 DA      0.0000
    154 H4'       -1.5119     8.4710  1306.2600 H        405 DA      0.0000
    155 H3'       -0.8549     9.6564  1308.7632 H        405 DA      0.0000
    156 H2'        0.0575     7.7860  1309.7290 H        405 DA      0.0000
    157 H2''      -1.6404     7.2381  1309.8483 H        405 DA      0.0000
    158 H1'       -1.5208     5.9940  1307.9289 H        405 DA      0.0000
    159 H8         2.3186     6.5104  1308.5133 H        405 DA      0.0000
    160 H2        -1.8772     1.6351  1308.4545 H        405 DA      0.0000
    161 H61        3.3605     1.6999  1309.3288 H        405 DA      0.0000
    162 H62        2.4327     0.3209  1308.8158 H        405 DA      0.0000
    163 P         -3.5932     9.9205  1309.2184 P.3      406 DT      0.0000
    164 OP1       -4.6432    10.6861  1308.4211 O.co2    406 DT      0.0000
    165 OP2       -2.7301    10.7440  1310.0390 O.co2    406 DT      0.0000
    166 O5'       -4.5244     8.8361  1310.0321 O.3      406 DT      0.0000
    167 C5'       -4.9688     7.7713  1309.0870 C.3      406 DT      0.0000
    168 C4'       -4.8329     6.4930  1309.8747 C.3      406 DT      0.0000
    169 O4'       -3.4969     6.0853  1310.0667 O.3      406 DT      0.0000
    170 C3'       -5.4239     6.6167  1311.2913 C.3      406 DT      0.0000
    171 O3'       -6.7317     6.0750  1311.2930 O.3      406 DT      0.0000
    172 C2'       -4.4263     5.8884  1312.1886 C.3      406 DT      0.0000
    173 C1'       -3.5913     5.1452  1311.2240 C.3      406 DT      0.0000
    174 N1        -2.2294     4.7647  1311.5637 N.am     406 DT      0.0000
    175 C2        -1.9729     3.4041  1311.7017 C.2      406 DT      0.0000
    176 O2        -2.8914     2.5995  1311.6136 O.2      406 DT      0.0000
    177 N3        -0.6931     3.0126  1311.9556 N.am     406 DT      0.0000
    178 C4         0.3392     3.8983  1312.0758 C.2      406 DT      0.0000
    179 O4         1.5042     3.4548  1312.3310 O.2      406 DT      0.0000
    180 C5         0.0550     5.2932  1311.9042 C.2      406 DT      0.0000
    181 C7         1.1602     6.3089  1311.9917 C.3      406 DT      0.0000
    182 C6        -1.2085     5.6738  1311.6484 C.2      406 DT      0.0000
    183 H5'       -6.0041     7.9305  1308.7854 H        406 DT      0.0000
    184 H5''      -4.3193     7.7471  1308.2120 H        406 DT      0.0000
    185 H4'       -5.3641     5.7018  1309.3456 H        406 DT      0.0000
    186 H3'       -5.4666     7.6681  1311.5757 H        406 DT      0.0000
    187 H2'       -3.8269     6.5954  1312.7620 H        406 DT      0.0000
    188 H2''      -4.9448     5.1991  1312.8550 H        406 DT      0.0000
    189 H1'       -4.1335     4.2545  1310.9066 H        406 DT      0.0000
    190 H3        -0.4998     2.0267  1312.0594 H        406 DT      0.0000
    191 H6        -1.4241     6.7226  1311.5063 H        406 DT      0.0000
    192 H71        2.1024     5.8039  1312.2048 H        406 DT      0.0000
    193 H72        1.2399     6.8413  1311.0439 H        406 DT      0.0000
    194 H73        0.9396     7.0181  1312.7895 H        406 DT      0.0000
    195 P         -7.8180     6.1461  1312.3996 P.3      407 DT      0.0000
    196 OP1       -9.2271     5.9361  1311.7875 O.co2    407 DT      0.0000
    197 OP2       -7.6842     7.4849  1313.0296 O.co2    407 DT      0.0000
    198 O5'       -7.5792     4.8284  1313.2819 O.3      407 DT      0.0000
    199 C5'       -7.9364     3.6133  1312.5702 C.3      407 DT      0.0000
    200 C4'       -7.2878     2.4556  1313.2463 C.3      407 DT      0.0000
    201 O4'       -5.8665     2.4994  1313.2230 O.3      407 DT      0.0000
    202 C3'       -7.7005     2.2651  1314.7130 C.3      407 DT      0.0000
    203 O3'       -7.9490     0.8974  1314.9770 O.3      407 DT      0.0000
    204 C2'       -6.4165     2.7156  1315.4493 C.3      407 DT      0.0000
    205 C1'       -5.4163     2.0236  1314.5457 C.3      407 DT      0.0000
    206 N1        -4.0613     2.4495  1314.8434 N.am     407 DT      0.0000
    207 C2        -3.0639     1.4895  1314.8983 C.2      407 DT      0.0000
    208 O2        -3.3616     0.3091  1314.7098 O.2      407 DT      0.0000
    209 N3        -1.7874     1.8982  1315.1642 N.am     407 DT      0.0000
    210 C4        -1.4726     3.2062  1315.3712 C.2      407 DT      0.0000
    211 O4        -0.2663     3.5116  1315.5945 O.2      407 DT      0.0000
    212 C5        -2.5061     4.1857  1315.3061 C.2      407 DT      0.0000
    213 C7        -2.2379     5.6474  1315.5160 C.3      407 DT      0.0000
    214 C6        -3.7541     3.7667  1315.0450 C.2      407 DT      0.0000
    215 H5'       -9.0189     3.4858  1312.5826 H        407 DT      0.0000
    216 H5''      -7.5875     3.6772  1311.5395 H        407 DT      0.0000
    217 H4'       -7.5908     1.5577  1312.7078 H        407 DT      0.0000
    218 H3'       -8.5555     2.8882  1314.9754 H        407 DT      0.0000
    219 H2'       -6.2962     3.7989  1315.4481 H        407 DT      0.0000
    220 H2''      -6.3792     2.3143  1316.4620 H        407 DT      0.0000
    221 H1'       -5.5088     0.9402  1314.6214 H        407 DT      0.0000
    222 H3        -1.0527     1.2065  1315.2086 H        407 DT      0.0000
    223 H6        -4.5467     4.4984  1314.9919 H        407 DT      0.0000
    224 H71       -1.1767     5.7978  1315.7149 H        407 DT      0.0000
    225 H72       -2.5214     6.2008  1314.6207 H        407 DT      0.0000
    226 H73       -2.8209     6.0057  1316.3644 H        407 DT      0.0000
    227 P         -9.1250     0.0546  1315.5850 P.3      408 DC      0.0000
    228 OP1       -9.8362    -0.7541  1314.5170 O.co2    408 DC      0.0000
    229 OP2       -9.9593     1.0227  1316.3199 O.co2    408 DC      0.0000
    230 O5'       -8.1884    -0.9945  1316.4110 O.3      408 DC      0.0000
    231 C5'       -7.2535    -1.5007  1315.3887 C.3      408 DC      0.0000
    232 C4'       -6.2992    -2.4286  1316.0852 C.3      408 DC      0.0000
    233 O4'       -5.0607    -1.8386  1316.3321 O.3      408 DC      0.0000
    234 C3'       -6.8236    -3.0462  1317.3767 C.3      408 DC      0.0000
    235 O3'       -6.7821    -4.4648  1317.2970 O.3      408 DC      0.0000
    236 C2'       -5.9505    -2.3538  1318.4254 C.3      408 DC      0.0000
    237 C1'       -4.6786    -2.0711  1317.7290 C.3      408 DC      0.0000
    238 N1        -4.0004    -0.8142  1318.0611 N.am     408 DC      0.0000
    239 C2        -2.6342    -0.9091  1318.3169 C.2      408 DC      0.0000
    240 O2        -2.0554    -1.9999  1318.3214 O.2      408 DC      0.0000
    241 N3        -1.9596     0.2550  1318.5908 N.2      408 DC      0.0000
    242 C4        -2.5916     1.4636  1318.5809 C.2      408 DC      0.0000
    243 N4        -1.8527     2.5323  1318.8577 N.pl3    408 DC      0.0000
    244 C5        -3.9738     1.5461  1318.3028 C.2      408 DC      0.0000
    245 C6        -4.6227     0.3937  1318.0380 C.2      408 DC      0.0000
    246 H5'       -7.8010    -2.0391  1314.6151 H        408 DC      0.0000
    247 H5''      -6.7049    -0.6702  1314.9445 H        408 DC      0.0000
    248 H4'       -6.1163    -3.2557  1315.3993 H        408 DC      0.0000
    249 H3'       -7.8578    -2.7334  1317.5200 H        408 DC      0.0000
    250 H2'       -6.4172    -1.4285  1318.7633 H        408 DC      0.0000
    251 H2''      -5.7775    -3.0195  1319.2710 H        408 DC      0.0000
    252 H1'       -3.9944    -2.9157  1317.8100 H        408 DC      0.0000
    253 H5        -4.4907     2.4944  1318.3023 H        408 DC      0.0000
    254 H6        -5.6752     0.4322  1317.7990 H        408 DC      0.0000
    255 H41       -0.8681     2.4278  1319.0569 H        408 DC      0.0000
    256 H42       -2.2756     3.4495  1318.8690 H        408 DC      0.0000
    257 P         -7.5852    -5.5050  1318.2490 P.3      409 DA      0.0000
    258 OP1       -7.7641    -6.7849  1317.4553 O.co2    409 DA      0.0000
    259 OP2       -8.8834    -4.8909  1318.5946 O.co2    409 DA      0.0000
    260 O5'       -6.5920    -5.7036  1319.5460 O.3      409 DA      0.0000
    261 C5'       -5.2119    -6.0794  1319.2508 C.3      409 DA      0.0000
    262 C4'       -4.4040    -6.1266  1320.5061 C.3      409 DA      0.0000
    263 O4'       -3.5907    -4.9746  1320.7482 O.3      409 DA      0.0000
    264 C3'       -5.2100    -6.2347  1321.8113 C.3      409 DA      0.0000
    265 O3'       -4.3459    -6.7203  1322.8413 O.3      409 DA      0.0000
    266 C2'       -5.5382    -4.7437  1322.0259 C.3      409 DA      0.0000
    267 C1'       -4.1089    -4.2223  1321.8427 C.3      409 DA      0.0000
    268 N9        -4.1368    -2.7725  1321.7483 N.ar     409 DA      0.0000
    269 C8        -5.1896    -1.9077  1321.6325 C.ar     409 DA      0.0000
    270 N7        -4.8612    -0.6283  1321.6139 N.ar     409 DA      0.0000
    271 C5        -3.4780    -0.6553  1321.7214 C.ar     409 DA      0.0000
    272 C6        -2.5083     0.3770  1321.7560 C.ar     409 DA      0.0000
    273 N6        -2.7833     1.6661  1321.6707 N.pl3    409 DA      0.0000
    274 N1        -1.2093    -0.0224  1321.8885 N.ar     409 DA      0.0000
    275 C2        -0.8787    -1.3490  1321.9687 C.ar     409 DA      0.0000
    276 N3        -1.7292    -2.3722  1321.9389 N.ar     409 DA      0.0000
    277 C4        -3.0139    -1.9573  1321.8159 C.ar     409 DA      0.0000
    278 H5'       -5.2006    -7.0622  1318.7797 H        409 DA      0.0000
    279 H5''      -4.7770    -5.3480  1318.5695 H        409 DA      0.0000
    280 H4'       -3.7459    -6.9935  1320.4472 H        409 DA      0.0000
    281 H3'       -6.1056    -6.8455  1321.6977 H        409 DA      0.0000
    282 H2'       -6.2255    -4.3539  1321.2752 H        409 DA      0.0000
    283 H2''      -5.9038    -4.5575  1323.0358 H        409 DA      0.0000
    284 H1'       -3.5385    -4.4890  1322.7323 H        409 DA      0.0000
    285 H8        -6.2130    -2.2453  1321.5615 H        409 DA      0.0000
    286 H2         0.1703    -1.5870  1322.0652 H        409 DA      0.0000
    287 H61       -2.2595     2.5107  1321.8508 H        409 DA      0.0000
    288 H62       -3.7258     1.8473  1321.3560 H        409 DA      0.0000
    289 P         -4.0091    -8.2783  1322.9817 P.3      410 DC      0.0000
    290 OP1       -4.2778    -9.0520  1321.7366 O.co2    410 DC      0.0000
    291 OP2       -4.8906    -8.6916  1324.1246 O.co2    410 DC      0.0000
    292 O5'       -2.4488    -8.2897  1323.2649 O.3      410 DC      0.0000
    293 C5'       -1.4811    -8.1844  1322.1772 C.3      410 DC      0.0000
    294 C4'       -0.2989    -7.5097  1322.8821 C.3      410 DC      0.0000
    295 O4'       -0.6915    -6.1932  1323.1941 O.3      410 DC      0.0000
    296 C3'        0.1024    -8.1828  1324.1920 C.3      410 DC      0.0000
    297 O3'        1.5144    -8.4850  1324.2599 O.3      410 DC      0.0000
    298 C2'       -0.3602    -7.1956  1325.2742 C.3      410 DC      0.0000
    299 C1'       -0.2222    -5.8921  1324.5981 C.3      410 DC      0.0000
    300 N1        -1.0702    -4.7564  1324.9509 N.am     410 DC      0.0000
    301 C2        -0.4381    -3.5146  1324.9240 C.2      410 DC      0.0000
    302 O2         0.7621    -3.3877  1324.7171 O.2      410 DC      0.0000
    303 N3        -1.2028    -2.4187  1325.1771 N.2      410 DC      0.0000
    304 C4        -2.5352    -2.4991  1325.4105 C.2      410 DC      0.0000
    305 N4        -3.1768    -1.3553  1325.6414 N.pl3    410 DC      0.0000
    306 C5        -3.1713    -3.7710  1325.4170 C.2      410 DC      0.0000
    307 C6        -2.4103    -4.8479  1325.1676 C.2      410 DC      0.0000
    308 H5'       -1.2068    -9.1666  1321.7923 H        410 DC      0.0000
    309 H5''      -1.8663    -7.5509  1321.3782 H        410 DC      0.0000
    310 H4'        0.5584    -7.4835  1322.2095 H        410 DC      0.0000
    311 H3'       -0.4610    -9.1099  1324.2979 H        410 DC      0.0000
    312 H2'       -1.3950    -7.3826  1325.5612 H        410 DC      0.0000
    313 H2''       0.2940    -7.2469  1326.1445 H        410 DC      0.0000
    314 H1'        0.8242    -5.5872  1324.5848 H        410 DC      0.0000
    315 H5        -4.2285    -3.8668  1325.6155 H        410 DC      0.0000
    316 H6        -2.8779    -5.8210  1325.1379 H        410 DC      0.0000
    317 H41       -2.6709    -0.4813  1325.6304 H        410 DC      0.0000
    318 H42       -4.1696    -1.3619  1325.8276 H        410 DC      0.0000
    319 P         -0.1381     8.4869  1327.2194 P.3      410 DG      0.0000
    320 OP1       -0.2292     9.9690  1327.3982 O.co2    410 DG      0.0000
    321 OP2       -1.0675     7.9588  1326.1346 O.co2    410 DG      0.0000
    322 O5'        1.4374     8.0580  1327.0122 O.3      410 DG      0.0000
    323 C5'        2.1455     7.3888  1328.1080 C.3      410 DG      0.0000
    324 C4'        3.0541     6.3383  1327.4737 C.3      410 DG      0.0000
    325 O4'        2.4256     5.0892  1327.3779 O.3      410 DG      0.0000
    326 C3'        3.5353     6.6854  1326.0674 C.3      410 DG      0.0000
    327 O3'        4.9101     6.3241  1325.8004 O.3      410 DG      0.0000
    328 C2'        2.5619     5.9058  1325.1651 C.3      410 DG      0.0000
    329 C1'        2.3586     4.6451  1325.9889 C.3      410 DG      0.0000
    330 N9         1.0442     4.0392  1325.7156 N.ar     410 DG      0.0000
    331 C8        -0.1639     4.6761  1325.5589 C.ar     410 DG      0.0000
    332 N7        -1.1663     3.8670  1325.3405 N.ar     410 DG      0.0000
    333 C5        -0.5829     2.6057  1325.3653 C.ar     410 DG      0.0000
    334 C6        -1.1436     1.3101  1325.2089 C.2      410 DG      0.0000
    335 O6        -2.3367     1.0388  1325.0120 O.2      410 DG      0.0000
    336 N1        -0.2330     0.2860  1325.2958 N.am     410 DG      0.0000
    337 C2         1.0877     0.4975  1325.5165 C.2      410 DG      0.0000
    338 N2         1.8492    -0.5913  1325.5798 N.pl3    410 DG      0.0000
    339 N3         1.6657     1.6946  1325.6742 N.2      410 DG      0.0000
    340 C4         0.7717     2.6989  1325.5909 C.ar     410 DG      0.0000
    341 H5'        2.7410     8.1116  1328.6658 H        410 DG      0.0000
    342 H5''       1.4289     6.9067  1328.7729 H        410 DG      0.0000
    343 H4'        3.9315     6.2247  1328.1104 H        410 DG      0.0000
    344 H3'        3.4053     7.7542  1325.8969 H        410 DG      0.0000
    345 H2'        1.6265     6.4469  1325.0224 H        410 DG      0.0000
    346 H2''       3.0247     5.6720  1324.2063 H        410 DG      0.0000
    347 H1'        3.1539     3.9285  1325.7837 H        410 DG      0.0000
    348 H8        -0.2745     5.7491  1325.6117 H        410 DG      0.0000
    349 H1        -0.5606    -0.6636  1325.1910 H        410 DG      0.0000
    350 H21        1.4345    -1.5050  1325.4647 H        410 DG      0.0000
    351 H22        2.8421    -0.5043  1325.7430 H        410 DG      0.0000
    352 P          5.2481     5.9598  1324.2769 P.3      409 DT      0.0000
    353 OP1        6.6727     6.2475  1323.8860 O.co2    409 DT      0.0000
    354 OP2        4.3052     6.8660  1323.5764 O.co2    409 DT      0.0000
    355 O5'        4.9481     4.3913  1324.1460 O.3      409 DT      0.0000
    356 C5'        6.0634     3.4822  1324.4136 C.3      409 DT      0.0000
    357 C4'        5.8228     2.1943  1323.6566 C.3      409 DT      0.0000
    358 O4'        4.4579     1.8167  1323.6293 O.3      409 DT      0.0000
    359 C3'        6.2605     2.2671  1322.2019 C.3      409 DT      0.0000
    360 O3'        6.8614     1.0508  1321.7068 O.3      409 DT      0.0000
    361 C2'        4.9726     2.5941  1321.4790 C.3      409 DT      0.0000
    362 C1'        4.0187     1.7029  1322.2571 C.3      409 DT      0.0000
    363 N1         2.6761     2.2855  1322.1058 N.am     409 DT      0.0000
    364 C2         1.6071     1.4017  1322.2126 C.2      409 DT      0.0000
    365 O2         1.8053     0.2064  1322.4023 O.2      409 DT      0.0000
    366 N3         0.3501     1.9252  1322.0924 N.am     409 DT      0.0000
    367 C4         0.1403     3.2540  1321.8748 C.2      409 DT      0.0000
    368 O4        -1.0684     3.6492  1321.7773 O.2      409 DT      0.0000
    369 C5         1.2548     4.1342  1321.7685 C.2      409 DT      0.0000
    370 C7         1.0351     5.6022  1321.5395 C.3      409 DT      0.0000
    371 C6         2.4802     3.6175  1321.8902 C.2      409 DT      0.0000
    372 H5'        6.9964     3.9363  1324.0799 H        409 DT      0.0000
    373 H5''       6.1186     3.2744  1325.4822 H        409 DT      0.0000
    374 H4'        6.3878     1.4000  1324.1445 H        409 DT      0.0000
    375 H3'        6.9623     3.0918  1322.0779 H        409 DT      0.0000
    376 H2'        4.7109     3.6482  1321.5706 H        409 DT      0.0000
    377 H2''       5.0238     2.2930  1320.4326 H        409 DT      0.0000
    378 H1'        4.0531     0.6714  1321.9065 H        409 DT      0.0000
    379 H3        -0.4466     1.3090  1322.1671 H        409 DT      0.0000
    380 H6         3.3371     4.2706  1321.8161 H        409 DT      0.0000
    381 H71       -0.0339     5.8037  1321.4708 H        409 DT      0.0000
    382 H72        1.4583     6.1666  1322.3704 H        409 DT      0.0000
    383 H73        1.5217     5.9020  1320.6114 H        409 DT      0.0000
    384 P          8.2630     1.4802  1320.9284 P.3      408 DG      0.0000
    385 OP1        9.4741     1.4015  1321.7996 O.co2    408 DG      0.0000
    386 OP2        7.8759     2.8545  1320.5228 O.co2    408 DG      0.0000
    387 O5'        8.3664     0.3073  1319.8476 O.3      408 DG      0.0000
    388 C5'        8.8480    -0.9934  1320.2710 C.3      408 DG      0.0000
    389 C4'        7.7700    -1.9724  1319.8233 C.3      408 DG      0.0000
    390 O4'        6.4932    -1.4296  1320.0940 O.3      408 DG      0.0000
    391 C3'        7.8138    -2.3213  1318.3356 C.3      408 DG      0.0000
    392 O3'        7.9174    -3.7184  1318.1271 O.3      408 DG      0.0000
    393 C2'        6.5723    -1.6644  1317.7589 C.3      408 DG      0.0000
    394 C1'        5.6383    -1.6171  1318.9450 C.3      408 DG      0.0000
    395 N9         4.6909    -0.5060  1318.8214 N.ar     408 DG      0.0000
    396 C8         4.9596     0.8240  1318.6626 C.ar     408 DG      0.0000
    397 N7         3.8869     1.5734  1318.5845 N.ar     408 DG      0.0000
    398 C5         2.8346     0.6728  1318.7220 C.ar     408 DG      0.0000
    399 C6         1.4267     0.8557  1318.7315 C.2      408 DG      0.0000
    400 O6         0.8167     1.9156  1318.6324 O.2      408 DG      0.0000
    401 N1         0.7051    -0.2945  1318.8805 N.am     408 DG      0.0000
    402 C2         1.3074    -1.5222  1319.0134 C.2      408 DG      0.0000
    403 N2         0.4848    -2.5628  1319.1490 N.pl3    408 DG      0.0000
    404 N3         2.6224    -1.7632  1319.0176 N.2      408 DG      0.0000
    405 C4         3.3243    -0.6142  1318.8669 C.ar     408 DG      0.0000
    406 H5'        9.7995    -1.2249  1319.7923 H        408 DG      0.0000
    407 H5''       8.9552    -1.0208  1321.3554 H        408 DG      0.0000
    408 H4'        7.8814    -2.8929  1320.3963 H        408 DG      0.0000
    409 H3'        8.6897    -1.8433  1317.8970 H        408 DG      0.0000
    410 H2'        6.7928    -0.6618  1317.3925 H        408 DG      0.0000
    411 H2''       6.1494    -2.2779  1316.9633 H        408 DG      0.0000
    412 H1'        5.0981    -2.5598  1319.0320 H        408 DG      0.0000
    413 H8         5.9623     1.2211  1318.6065 H        408 DG      0.0000
    414 H1        -0.3034    -0.2408  1318.8933 H        408 DG      0.0000
    415 H21       -0.5150    -2.4195  1319.1500 H        408 DG      0.0000
    416 H22        0.8615    -3.4943  1319.2508 H        408 DG      0.0000
    417 P          7.1324    -4.7816  1317.2608 P.3      407 DA      0.0000
    418 OP1        6.9835    -6.0932  1318.0421 O.co2    407 DA      0.0000
    419 OP2        7.9572    -4.9874  1316.0681 O.co2    407 DA      0.0000
    420 O5'        5.6209    -4.1992  1317.0860 O.3      407 DA      0.0000
    421 C5'        4.7689    -4.5426  1318.2424 C.3      407 DA      0.0000
    422 C4'        3.6590    -5.4177  1317.7146 C.3      407 DA      0.0000
    423 O4'        2.4701    -4.7026  1317.4923 O.3      407 DA      0.0000
    424 C3'        3.9993    -6.0678  1316.3741 C.3      407 DA      0.0000
    425 O3'        3.5724    -7.4070  1316.2989 O.3      407 DA      0.0000
    426 C2'        3.4141    -5.0833  1315.3775 C.3      407 DA      0.0000
    427 C1'        2.3259    -4.3407  1316.1014 C.3      407 DA      0.0000
    428 N9         2.4161    -2.8880  1315.8759 N.ar     407 DA      0.0000
    429 C8         3.5372    -2.1083  1315.6895 C.ar     407 DA      0.0000
    430 N7         3.2846    -0.8347  1315.4936 N.ar     407 DA      0.0000
    431 C5         1.8996    -0.7682  1315.5805 C.ar     407 DA      0.0000
    432 C6         1.0068     0.3238  1315.4748 C.ar     407 DA      0.0000
    433 N6         1.3910     1.5700  1315.2624 N.pl3    407 DA      0.0000
    434 N1        -0.3169     0.0289  1315.5986 N.ar     407 DA      0.0000
    435 C2        -0.7426    -1.2493  1315.8231 C.ar     407 DA      0.0000
    436 N3         0.0434    -2.3177  1315.9390 N.ar     407 DA      0.0000
    437 C4         1.3564    -2.0122  1315.8028 C.ar     407 DA      0.0000
    438 H5'        5.3497    -5.0821  1318.9905 H        407 DA      0.0000
    439 H5''       4.3513    -3.6354  1318.6791 H        407 DA      0.0000
    440 H4'        3.4607    -6.2046  1318.4423 H        407 DA      0.0000
    441 H3'        5.0833    -6.0547  1316.2610 H        407 DA      0.0000
    442 H2'        3.0011    -5.6155  1314.5207 H        407 DA      0.0000
    443 H2''       4.1842    -4.3862  1315.0470 H        407 DA      0.0000
    444 H1'        1.3591    -4.6940  1315.7432 H        407 DA      0.0000
    445 H8         4.5392    -2.5110  1315.7034 H        407 DA      0.0000
    446 H2        -1.8071    -1.4066  1315.9143 H        407 DA      0.0000
    447 H61        0.8322     2.3501  1315.5778 H        407 DA      0.0000
    448 H62        2.2587     1.7457  1314.7761 H        407 DA      0.0000
    449 P          2.9365    -8.2371  1315.1143 P.3      406 DA      0.0000
    450 OP1        2.3945    -9.6006  1315.6342 O.co2    406 DA      0.0000
    451 OP2        4.0775    -8.4917  1314.1806 O.co2    406 DA      0.0000
    452 O5'        1.6703    -7.4458  1314.6116 O.3      406 DA      0.0000
    453 C5'        0.3553    -7.8255  1315.0675 C.3      406 DA      0.0000
    454 C4'       -0.6338    -6.9208  1314.3655 C.3      406 DA      0.0000
    455 O4'       -0.2131    -5.5918  1314.2448 O.3      406 DA      0.0000
    456 C3'       -0.9975    -7.3914  1312.9580 C.3      406 DA      0.0000
    457 O3'       -2.3832    -7.7822  1312.9266 O.3      406 DA      0.0000
    458 C2'       -0.5462    -6.2393  1312.0585 C.3      406 DA      0.0000
    459 C1'       -0.6468    -5.0436  1312.9562 C.3      406 DA      0.0000
    460 N9         0.2446    -3.9278  1312.6567 N.ar     406 DA      0.0000
    461 C8         1.6103    -3.9293  1312.4619 C.ar     406 DA      0.0000
    462 N7         2.1179    -2.7344  1312.2565 N.ar     406 DA      0.0000
    463 C5         1.0293    -1.8875  1312.3310 C.ar     406 DA      0.0000
    464 C6         0.9138    -0.4856  1312.1975 C.ar     406 DA      0.0000
    465 N6         1.9414     0.3222  1311.9543 N.pl3    406 DA      0.0000
    466 N1        -0.3556     0.0127  1312.3464 N.ar     406 DA      0.0000
    467 C2        -1.4147    -0.7803  1312.5989 C.ar     406 DA      0.0000
    468 N3        -1.3814    -2.1092  1312.7377 N.ar     406 DA      0.0000
    469 C4        -0.1295    -2.5971  1312.5905 C.ar     406 DA      0.0000
    470 H5'        0.1568    -8.8664  1314.8123 H        406 DA      0.0000
    471 H5''       0.2828    -7.6879  1316.1463 H        406 DA      0.0000
    472 H4'       -1.5502    -6.9200  1314.9557 H        406 DA      0.0000
    473 H3'       -0.3908    -8.2659  1312.7230 H        406 DA      0.0000
    474 H2'        0.4788    -6.3875  1311.7186 H        406 DA      0.0000
    475 H2''      -1.2188    -6.1345  1311.2071 H        406 DA      0.0000
    476 H1'       -1.6794    -4.6996  1313.0173 H        406 DA      0.0000
    477 H8         2.2073    -4.8291  1312.4769 H        406 DA      0.0000
    478 H2        -2.3766    -0.2995  1312.6979 H        406 DA      0.0000
    479 H61        1.8161     1.2804  1312.2483 H        406 DA      0.0000
    480 H62        2.7878     0.0005  1311.5070 H        406 DA      0.0000
    481 P         -3.0143    -8.3072  1311.5416 P.3      405 DT      0.0000
    482 OP1       -4.3415    -8.9988  1311.5997 O.co2    405 DT      0.0000
    483 OP2       -1.8813    -9.1369  1311.0290 O.co2    405 DT      0.0000
    484 O5'       -3.2920    -6.8219  1310.8385 O.3      405 DT      0.0000
    485 C5'       -3.8190    -5.9118  1311.8508 C.3      405 DT      0.0000
    486 C4'       -4.5610    -4.8078  1311.1678 C.3      405 DT      0.0000
    487 O4'       -3.7995    -3.6514  1310.9874 O.3      405 DT      0.0000
    488 C3'       -5.1244    -5.1855  1309.8066 C.3      405 DT      0.0000
    489 O3'       -6.3995    -4.5892  1309.5393 O.3      405 DT      0.0000
    490 C2'       -3.9761    -4.6982  1308.9132 C.3      405 DT      0.0000
    491 C1'       -3.6324    -3.3702  1309.5533 C.3      405 DT      0.0000
    492 N1        -2.2193    -3.0153  1309.3233 N.am     405 DT      0.0000
    493 C2        -1.9093    -1.6722  1309.2017 C.2      405 DT      0.0000
    494 O2        -2.7883    -0.8097  1309.2385 O.2      405 DT      0.0000
    495 N3        -0.5951    -1.3291  1309.0343 N.am     405 DT      0.0000
    496 C4         0.3917    -2.2639  1308.9857 C.2      405 DT      0.0000
    497 O4         1.5776    -1.8577  1308.8002 O.2      405 DT      0.0000
    498 C5         0.0539    -3.6382  1309.1341 C.2      405 DT      0.0000
    499 C7         1.1228    -4.7037  1309.0820 C.3      405 DT      0.0000
    500 C6        -1.2333    -3.9564  1309.3071 C.2      405 DT      0.0000
    501 H5'       -4.4952    -6.4526  1312.5129 H        405 DT      0.0000
    502 H5''      -2.9958    -5.4945  1312.4308 H        405 DT      0.0000
    503 H4'       -5.4050    -4.5431  1311.8049 H        405 DT      0.0000
    504 H3'       -5.2069    -6.2700  1309.7346 H        405 DT      0.0000
    505 H2'       -3.1301    -5.3848  1308.9438 H        405 DT      0.0000
    506 H2''      -4.3192    -4.5549  1307.8886 H        405 DT      0.0000
    507 H1'       -4.3036    -2.5789  1309.2193 H        405 DT      0.0000
    508 H3        -0.3508    -0.3533  1308.9441 H        405 DT      0.0000
    509 H6        -1.5009    -4.9945  1309.4385 H        405 DT      0.0000
    510 H71        1.1704    -5.1225  1308.0768 H        405 DT      0.0000
    511 H72        0.8829    -5.4938  1309.7936 H        405 DT      0.0000
    512 H73        2.0867    -4.2642  1309.3386 H        405 DT      0.0000
    513 P         -7.0129    -4.8692  1308.0494 P.3      404 DT      0.0000
    514 OP1       -8.2741    -5.7224  1308.1974 O.co2    404 DT      0.0000
    515 OP2       -5.9350    -5.6724  1307.3796 O.co2    404 DT      0.0000
    516 O5'       -7.3081    -3.4943  1307.3973 O.3      404 DT      0.0000
    517 C5'       -7.6596    -2.3325  1308.1487 C.3      404 DT      0.0000
    518 C4'       -7.1833    -1.1287  1307.4007 C.3      404 DT      0.0000
    519 O4'       -5.8047    -0.8795  1307.3437 O.3      404 DT      0.0000
    520 C3'       -7.6423    -0.9733  1305.9347 C.3      404 DT      0.0000
    521 O3'       -7.7786     0.4472  1305.8309 O.3      404 DT      0.0000
    522 C2'       -6.4166    -1.4919  1305.1709 C.3      404 DT      0.0000
    523 C1'       -5.3718    -0.7161  1305.9467 C.3      404 DT      0.0000
    524 N1        -3.9969    -1.2126  1305.8405 N.am     404 DT      0.0000
    525 C2        -3.0007    -0.2270  1305.8399 C.2      404 DT      0.0000
    526 O2        -3.2905     0.9704  1305.8829 O.2      404 DT      0.0000
    527 N3        -1.7050    -0.6538  1305.7864 N.am     404 DT      0.0000
    528 C4        -1.3642    -1.9724  1305.7267 C.2      404 DT      0.0000
    529 O4        -0.1326    -2.2669  1305.6643 O.2      404 DT      0.0000
    530 C5        -2.3948    -2.9515  1305.7349 C.2      404 DT      0.0000
    531 C7        -2.0305    -4.4202  1305.6735 C.3      404 DT      0.0000
    532 C6        -3.6609    -2.5295  1305.8014 C.2      404 DT      0.0000
    533 H5'       -8.7418    -2.2860  1308.2709 H        404 DT      0.0000
    534 H5''      -7.1810    -2.3696  1309.1273 H        404 DT      0.0000
    535 H4'       -7.6088    -0.2749  1307.9280 H        404 DT      0.0000
    536 H3'       -8.5593    -1.5163  1305.7060 H        404 DT      0.0000
    537 H2'       -6.4382    -1.2209  1304.1154 H        404 DT      0.0000
    538 H2''      -6.2922    -2.5667  1305.3025 H        404 DT      0.0000
    539 H1'       -5.4085     0.3369  1305.6676 H        404 DT      0.0000
    540 H3        -0.9678     0.0365  1305.7913 H        404 DT      0.0000
    541 H6        -4.4508    -3.2656  1305.8251 H        404 DT      0.0000
    542 H71       -0.9466    -4.5245  1305.6247 H        404 DT      0.0000
    543 H72       -2.4788    -4.8687  1304.7869 H        404 DT      0.0000
    544 H73       -2.4043    -4.9248  1306.5644 H        404 DT      0.0000
    545 P         -8.4684     1.2351  1304.6847 P.3      403 DC      0.0000
    546 OP1       -9.4293     2.2578  1305.2938 O.co2    403 DC      0.0000
    547 OP2       -9.2429     0.2211  1303.9029 O.co2    403 DC      0.0000
    548 O5'       -7.1808     1.9056  1303.9453 O.3      403 DC      0.0000
    549 C5'       -6.5636     3.0198  1304.6698 C.3      403 DC      0.0000
    550 C4'       -6.0600     3.9752  1303.6193 C.3      403 DC      0.0000
    551 O4'       -4.6816     3.8204  1303.3740 O.3      403 DC      0.0000
    552 C3'       -6.7422     3.8631  1302.2549 C.3      403 DC      0.0000
    553 O3'       -6.8632     5.0981  1301.5456 O.3      403 DC      0.0000
    554 C2'       -5.8386     2.8295  1301.5687 C.3      403 DC      0.0000
    555 C1'       -4.4574     3.1856  1302.1153 C.3      403 DC      0.0000
    556 N1        -3.6760     1.9321  1302.2331 N.am     403 DC      0.0000
    557 C2        -2.2870     2.0506  1302.2504 C.2      403 DC      0.0000
    558 O2        -1.7379     3.1587  1302.1817 O.2      403 DC      0.0000
    559 N3        -1.5610     0.8948  1302.3536 N.2      403 DC      0.0000
    560 C4        -2.1530    -0.3262  1302.4243 C.2      403 DC      0.0000
    561 N4        -1.4016    -1.4247  1302.5263 N.pl3    403 DC      0.0000
    562 C5        -3.5725    -0.4190  1302.3992 C.2      403 DC      0.0000
    563 C6        -4.2849     0.7169  1302.3056 C.2      403 DC      0.0000
    564 H5'       -7.2999     3.5112  1305.3058 H        403 DC      0.0000
    565 H5''      -5.7317     2.6570  1305.2737 H        403 DC      0.0000
    566 H4'       -6.2198     4.9884  1303.9880 H        403 DC      0.0000
    567 H3'       -7.7346     3.4328  1302.3890 H        403 DC      0.0000
    568 H2'       -5.8724     2.9346  1300.4844 H        403 DC      0.0000
    569 H2''      -6.1190     1.8186  1301.8647 H        403 DC      0.0000
    570 H1'       -3.9551     3.8742  1301.4359 H        403 DC      0.0000
    571 H5        -4.0654    -1.3784  1302.4540 H        403 DC      0.0000
    572 H6        -5.3635     0.6643  1302.2875 H        403 DC      0.0000
    573 H41       -0.3947    -1.3478  1302.5470 H        403 DC      0.0000
    574 H42       -1.8400    -2.3329  1302.5827 H        403 DC      0.0000
    575 P         -6.7310     5.2909  1299.9136 P.3      402 DA      0.0000
    576 OP1       -7.4631     6.5570  1299.5241 O.co2    402 DA      0.0000
    577 OP2       -7.3003     4.0397  1299.3435 O.co2    402 DA      0.0000
    578 O5'       -5.1647     5.5511  1299.7480 O.3      402 DA      0.0000
    579 C5'       -4.6261     6.8493  1300.2135 C.3      402 DA      0.0000
    580 C4'       -3.3959     7.0068  1299.3362 C.3      402 DA      0.0000
    581 O4'       -2.4714     5.9447  1299.6035 O.3      402 DA      0.0000
    582 C3'       -3.6984     6.8884  1297.8318 C.3      402 DA      0.0000
    583 O3'       -2.6377     7.4030  1297.0427 O.3      402 DA      0.0000
    584 C2'       -3.6395     5.3612  1297.6443 C.3      402 DA      0.0000
    585 C1'       -2.2931     5.1874  1298.3990 C.3      402 DA      0.0000
    586 N9        -2.1399     3.7434  1298.5444 N.ar     402 DA      0.0000
    587 C8        -3.1548     2.8157  1298.6172 C.ar     402 DA      0.0000
    588 N7        -2.7256     1.5839  1298.7319 N.ar     402 DA      0.0000
    589 C5        -1.3259     1.7208  1298.7255 C.ar     402 DA      0.0000
    590 C6        -0.2939     0.7476  1298.8255 C.ar     402 DA      0.0000
    591 N6        -0.5184    -0.5638  1298.9483 N.pl3    402 DA      0.0000
    592 N1         0.9681     1.2598  1298.7903 N.ar     402 DA      0.0000
    593 C2         1.1964     2.5907  1298.6714 C.ar     402 DA      0.0000
    594 N3         0.2780     3.5568  1298.5799 N.ar     402 DA      0.0000
    595 C4        -0.9628     3.0396  1298.6075 C.ar     402 DA      0.0000
    596 H5'       -5.3385     7.6572  1300.0467 H        402 DA      0.0000
    597 H5''      -4.3448     6.7947  1301.2651 H        402 DA      0.0000
    598 H4'       -2.9207     7.9664  1299.5401 H        402 DA      0.0000
    599 H3'       -4.6670     7.3092  1297.5621 H        402 DA      0.0000
    600 H2'       -4.4675     4.8411  1298.1259 H        402 DA      0.0000
    601 H2''      -3.5498     5.0879  1296.5929 H        402 DA      0.0000
    602 H1'       -1.4728     5.5984  1297.8106 H        402 DA      0.0000
    603 H8        -4.2019     3.0783  1298.5832 H        402 DA      0.0000
    604 H2         2.2299     2.9031  1298.6482 H        402 DA      0.0000
    605 H61       -1.4655    -0.9138  1298.9730 H        402 DA      0.0000
    606 H62        0.2589    -1.2050  1299.0164 H        402 DA      0.0000
    607 P         -2.9188     8.4711  1295.9018 P.3      401 DC      0.0000
    608 OP1       -2.9453     9.7750  1296.6821 O.co2    401 DC      0.0000
    609 OP2       -4.1668     8.2091  1295.1762 O.co2    401 DC      0.0000
    610 O5'       -1.6190     8.2210  1294.9259 O.3      401 DC      0.0000
    611 C5'       -0.3008     8.2615  1295.5950 C.3      401 DC      0.0000
    612 C4'        0.5937     7.2354  1294.9509 C.3      401 DC      0.0000
    613 O4'        0.5596     5.9642  1295.5881 O.3      401 DC      0.0000
    614 C3'        0.2487     6.9838  1293.4731 C.3      401 DC      0.0000
    615 O3'        1.3750     6.6745  1292.6618 O.3      401 DC      0.0000
    616 C2'       -0.6293     5.7003  1293.6388 C.3      401 DC      0.0000
    617 C1'        0.4479     4.9846  1294.5343 C.3      401 DC      0.0000
    618 N1        -0.0249     3.6460  1294.7722 N.am     401 DC      0.0000
    619 C2         0.9007     2.6651  1295.0894 C.2      401 DC      0.0000
    620 O2         2.1259     2.7512  1295.2299 O.2      401 DC      0.0000
    621 N3         0.4437     1.3918  1295.2876 N.2      401 DC      0.0000
    622 C4        -0.8809     1.0711  1295.1716 C.2      401 DC      0.0000
    623 N4        -1.2842    -0.1907  1295.3877 N.pl3    401 DC      0.0000
    624 C5        -1.8188     2.0882  1294.8420 C.2      401 DC      0.0000
    625 C6        -1.3475     3.3258  1294.6503 C.2      401 DC      0.0000
    626 H5'        0.1377     9.2532  1295.4835 H        401 DC      0.0000
    627 H5''      -0.4201     8.0306  1296.6536 H        401 DC      0.0000
    628 H4'        1.6175     7.6065  1294.9977 H        401 DC      0.0000
    629 H3'       -0.3282     7.8082  1293.0541 H        401 DC      0.0000
    630 H2'       -1.5713     5.8829  1294.1559 H        401 DC      0.0000
    631 H2''      -0.7787     5.1839  1292.6905 H        401 DC      0.0000
    632 H1'        1.3908     4.9382  1293.9894 H        401 DC      0.0000
    633 H5        -2.8725     1.8697  1294.7499 H        401 DC      0.0000
    634 H6        -2.0447     4.1075  1294.3870 H        401 DC      0.0000
    635 H41       -0.6092    -0.9024  1295.6282 H        401 DC      0.0000
    636 H42       -2.2627    -0.4284  1295.3098 H        401 DC      0.0000
    637 P          3.7018    -9.3101  1329.2610 P.3      411 DG      0.0000
    638 OP1        3.5285   -10.7837  1329.2594 O.co2    411 DG      0.0000
    639 OP2        2.7366    -8.7515  1330.3167 O.co2    411 DG      0.0000
    640 O5'        5.1845    -8.7610  1329.4394 O.3      411 DG      0.0000
    641 C5'        6.0887    -8.2454  1328.4394 C.3      411 DG      0.0000
    642 C4'        6.6406    -6.9262  1328.9382 C.3      411 DG      0.0000
    643 O4'        5.8564    -5.8304  1328.5190 O.3      411 DG      0.0000
    644 C3'        6.8484    -6.7638  1330.4304 C.3      411 DG      0.0000
    645 O3'        8.2104    -6.3648  1330.7424 O.3      411 DG      0.0000
    646 C2'        5.8115    -5.7402  1330.8523 C.3      411 DG      0.0000
    647 C1'        5.5764    -4.9359  1329.5966 C.3      411 DG      0.0000
    648 N9         4.1891    -4.4384  1329.5676 N.ar     411 DG      0.0000
    649 C8         3.0147    -5.1157  1329.7964 C.ar     411 DG      0.0000
    650 N7         1.9378    -4.3682  1329.7067 N.ar     411 DG      0.0000
    651 C5         2.4357    -3.1070  1329.3897 C.ar     411 DG      0.0000
    652 C6         1.7895    -1.8666  1329.1638 C.2      411 DG      0.0000
    653 O6         0.5831    -1.6205  1329.1851 O.2      411 DG      0.0000
    654 N1         2.6226    -0.8187  1328.8823 N.am     411 DG      0.0000
    655 C2         3.9104    -0.9370  1328.8216 C.2      411 DG      0.0000
    656 N2         4.4476     0.1822  1328.5249 N.pl3    411 DG      0.0000
    657 N3         4.6382    -2.1128  1329.0304 N.2      411 DG      0.0000
    658 C4         3.8150    -3.1354  1329.3030 C.ar     411 DG      0.0000
    659 H5'        6.9047    -8.9505  1328.2807 H        411 DG      0.0000
    660 H5''       5.5514    -8.0887  1327.5040 H        411 DG      0.0000
    661 H4'        7.6188    -6.8035  1328.4735 H        411 DG      0.0000
    662 H3'        6.6338    -7.7114  1330.9243 H        411 DG      0.0000
    663 H2'        4.8934    -6.2284  1331.1792 H        411 DG      0.0000
    664 H2''       6.2060    -5.1031  1331.6438 H        411 DG      0.0000
    665 H1'        6.2688    -4.0947  1329.5647 H        411 DG      0.0000
    666 H8         2.9803    -6.1697  1330.0295 H        411 DG      0.0000
    667 H1         2.2140     0.0895  1328.7139 H        411 DG      0.0000
    668 H21        3.8692     0.9974  1328.3805 H        411 DG      0.0000
    669 H22        5.4511     0.2524  1328.4344 H        411 DG      0.0000
    670 P          8.6420    -5.8494  1332.1709 P.3      412 DT      0.0000
    671 OP1        9.9730    -6.3361  1332.6826 O.co2    412 DT      0.0000
    672 OP2        7.6022    -6.5165  1333.0896 O.co2    412 DT      0.0000
    673 O5'        8.4346    -4.3135  1332.1995 O.3      412 DT      0.0000
    674 C5'        9.5245    -3.3618  1332.0555 C.3      412 DT      0.0000
    675 C4'        8.8559    -2.0042  1332.1130 C.3      412 DT      0.0000
    676 O4'        7.4743    -2.0784  1331.8379 O.3      412 DT      0.0000
    677 C3'        8.9452    -1.2679  1333.4257 C.3      412 DT      0.0000
    678 O3'        9.7274    -0.0794  1333.2375 O.3      412 DT      0.0000
    679 C2'        7.5054    -0.9367  1333.8180 C.3      412 DT      0.0000
    680 C1'        6.8423    -0.9247  1332.4652 C.3      412 DT      0.0000
    681 N1         5.4106    -1.2099  1332.5619 N.am     412 DT      0.0000
    682 C2         4.5456    -0.1679  1332.3639 C.2      412 DT      0.0000
    683 O2         4.9317     0.9741  1332.1257 O.2      412 DT      0.0000
    684 N3         3.2074    -0.4446  1332.4450 N.am     412 DT      0.0000
    685 C4         2.7269    -1.6825  1332.7009 C.2      412 DT      0.0000
    686 O4         1.4729    -1.7825  1332.7462 O.2      412 DT      0.0000
    687 C5         3.6473    -2.7611  1332.9006 C.2      412 DT      0.0000
    688 C7         3.1574    -4.1446  1333.1805 C.3      412 DT      0.0000
    689 C6         4.9544    -2.4813  1332.8191 C.2      412 DT      0.0000
    690 H5'       10.2416    -3.4723  1332.8689 H        412 DT      0.0000
    691 H5''      10.0201    -3.4981  1331.0943 H        412 DT      0.0000
    692 H4'        9.3134    -1.3763  1331.3485 H        412 DT      0.0000
    693 H3'        9.4040    -1.9037  1334.1828 H        412 DT      0.0000
    694 H2'        7.0800    -1.7024  1334.4668 H        412 DT      0.0000
    695 H2''       7.4474     0.0454  1334.2872 H        412 DT      0.0000
    696 H1'        7.0405    -0.0020  1331.9199 H        412 DT      0.0000
    697 H3         2.5496     0.3094  1332.3075 H        412 DT      0.0000
    698 H6         5.6709    -3.2772  1332.9595 H        412 DT      0.0000
    699 H71        3.2310    -4.7468  1332.2750 H        412 DT      0.0000
    700 H72        2.1178    -4.1029  1333.5053 H        412 DT      0.0000
    701 H73        3.7657    -4.5935  1333.9658 H        412 DT      0.0000
    702 P         10.6672     0.2734  1334.5175 P.3      413 DG      0.0000
    703 OP1       11.8970     0.8184  1333.8024 O.co2    413 DG      0.0000
    704 OP2       10.9122    -0.9434  1335.2710 O.co2    413 DG      0.0000
    705 O5'        9.6865     1.4270  1335.1270 O.3      413 DG      0.0000
    706 C5'        9.2476     2.3222  1334.0364 C.3      413 DG      0.0000
    707 C4'        8.1074     3.1472  1334.5564 C.3      413 DG      0.0000
    708 O4'        6.8199     2.6211  1334.3759 O.3      413 DG      0.0000
    709 C3'        8.2489     3.4686  1336.0645 C.3      413 DG      0.0000
    710 O3'        8.1606     4.9053  1336.2233 O.3      413 DG      0.0000
    711 C2'        7.1548     2.6507  1336.7171 C.3      413 DG      0.0000
    712 C1'        6.0808     2.6496  1335.6355 C.3      413 DG      0.0000
    713 N9         5.1532     1.5256  1335.8050 N.ar     413 DG      0.0000
    714 C8         5.4319     0.2296  1336.1412 C.ar     413 DG      0.0000
    715 N7         4.3788    -0.5530  1336.2270 N.ar     413 DG      0.0000
    716 C5         3.3284     0.3004  1335.8970 C.ar     413 DG      0.0000
    717 C6         1.9277     0.0603  1335.8026 C.2      413 DG      0.0000
    718 O6         1.3179    -1.0021  1335.9949 O.2      413 DG      0.0000
    719 N1         1.1823     1.1675  1335.4676 N.am     413 DG      0.0000
    720 C2         1.7562     2.3817  1335.2438 C.2      413 DG      0.0000
    721 N2         0.8777     3.3446  1334.9350 N.pl3    413 DG      0.0000
    722 N3         3.0569     2.6551  1335.3148 N.2      413 DG      0.0000
    723 C4         3.7870     1.5749  1335.6414 C.ar     413 DG      0.0000
    724 H5'       10.0695     2.9720  1333.7359 H        413 DG      0.0000
    725 H5''       8.9153     1.7296  1333.1840 H        413 DG      0.0000
    726 H4'        8.1377     4.0989  1334.0259 H        413 DG      0.0000
    727 H3'        9.2201     3.1236  1336.4192 H        413 DG      0.0000
    728 H2'        7.4947     1.6394  1336.9400 H        413 DG      0.0000
    729 H2''       6.7922     3.1429  1337.6195 H        413 DG      0.0000
    730 H1'        5.5197     3.5822  1335.6944 H        413 DG      0.0000
    731 H8         6.4367    -0.1230  1336.3219 H        413 DG      0.0000
    732 H1         0.1797     1.0767  1335.3852 H        413 DG      0.0000
    733 H21       -0.1083     3.1314  1334.8848 H        413 DG      0.0000
    734 H22        1.2012     4.2838  1334.7523 H        413 DG      0.0000
    735 P          8.3782     5.5899  1337.6118 P.3      414 DA      0.0000
    736 OP1        9.7807     5.9640  1337.9671 O.co2    414 DA      0.0000
    737 OP2        7.9737     4.3620  1338.5075 O.co2    414 DA      0.0000
    738 O5'        7.2185     6.6425  1337.8609 O.3      414 DA      0.0000
    739 C5'        6.4369     7.2668  1336.8318 C.3      414 DA      0.0000
    740 C4'        4.9961     7.1661  1337.3062 C.3      414 DA      0.0000
    741 O4'        4.5408     5.8330  1337.2158 O.3      414 DA      0.0000
    742 C3'        4.7201     7.6338  1338.7352 C.3      414 DA      0.0000
    743 O3'        3.5670     8.4990  1338.7875 O.3      414 DA      0.0000
    744 C2'        4.5060     6.3052  1339.4706 C.3      414 DA      0.0000
    745 C1'        3.7404     5.5525  1338.3931 C.3      414 DA      0.0000
    746 N9         3.6666     4.1059  1338.6215 N.ar     414 DA      0.0000
    747 C8         4.6650     3.1989  1338.8372 C.ar     414 DA      0.0000
    748 N7         4.2387     1.9665  1339.0022 N.ar     414 DA      0.0000
    749 C5         2.8628     2.0689  1338.8620 C.ar     414 DA      0.0000
    750 C6         1.8422     1.0943  1338.9100 C.ar     414 DA      0.0000
    751 N6         2.0499    -0.2062  1339.1297 N.pl3    414 DA      0.0000
    752 N1         0.5749     1.5681  1338.7201 N.ar     414 DA      0.0000
    753 C2         0.3418     2.8831  1338.5024 C.ar     414 DA      0.0000
    754 N3         1.2509     3.8556  1338.4441 N.ar     414 DA      0.0000
    755 C4         2.4921     3.3711  1338.6310 C.ar     414 DA      0.0000
    756 H5'        6.5644     6.7427  1335.8846 H        414 DA      0.0000
    757 H5''       6.7245     8.3126  1336.7240 H        414 DA      0.0000
    758 H4'        4.3844     7.7706  1336.6364 H        414 DA      0.0000
    759 H3'        5.5933     8.1481  1339.1366 H        414 DA      0.0000
    760 H2'        5.4497     5.8181  1339.7161 H        414 DA      0.0000
    761 H2''       3.8937     6.4447  1340.3615 H        414 DA      0.0000
    762 H1'        2.7397     5.9691  1338.2785 H        414 DA      0.0000
    763 H8         5.7099     3.4699  1338.8693 H        414 DA      0.0000
    764 H2        -0.6884     3.1748  1338.3610 H        414 DA      0.0000
    765 H61        2.9393    -0.6748  1339.0323 H        414 DA      0.0000
    766 H62        1.2896    -0.8485  1338.9582 H        414 DA      0.0000
    767 P          3.3961     9.6678  1339.9289 P.3      415 DA      0.0000
    768 OP1        3.3276    11.0190  1339.2619 O.co2    415 DA      0.0000
    769 OP2        4.5943     9.4317  1340.7598 O.co2    415 DA      0.0000
    770 O5'        1.9129     9.4161  1340.4598 O.3      415 DA      0.0000
    771 C5'        0.7526     9.5136  1339.6354 C.3      415 DA      0.0000
    772 C4'       -0.2813     8.5316  1340.1577 C.3      415 DA      0.0000
    773 O4'        0.2261     7.2274  1340.1859 O.3      415 DA      0.0000
    774 C3'       -0.8819     8.8086  1341.5250 C.3      415 DA      0.0000
    775 O3'       -2.2846     9.0614  1341.4472 O.3      415 DA      0.0000
    776 C2'       -0.4857     7.5804  1342.3538 C.3      415 DA      0.0000
    777 C1'       -0.2696     6.5061  1341.3600 C.3      415 DA      0.0000
    778 N9         0.6962     5.4251  1341.6280 N.ar     415 DA      0.0000
    779 C8         2.0644     5.4713  1341.7432 C.ar     415 DA      0.0000
    780 N7         2.6287     4.2990  1341.9125 N.ar     415 DA      0.0000
    781 C5         1.5606     3.4085  1341.8755 C.ar     415 DA      0.0000
    782 C6         1.5042     1.9906  1341.9960 C.ar     415 DA      0.0000
    783 N6         2.5466     1.1918  1342.1876 N.pl3    415 DA      0.0000
    784 N1         0.2523     1.4367  1341.8978 N.ar     415 DA      0.0000
    785 C2        -0.8443     2.2266  1341.7087 C.ar     415 DA      0.0000
    786 N3        -0.8623     3.5503  1341.6009 N.ar     415 DA      0.0000
    787 C4         0.3740     4.0801  1341.6927 C.ar     415 DA      0.0000
    788 H5'        1.0096     9.2663  1338.6054 H        415 DA      0.0000
    789 H5''       0.3532    10.5268  1339.6814 H        415 DA      0.0000
    790 H4'       -1.1060     8.5335  1339.4450 H        415 DA      0.0000
    791 H3'       -0.3932     9.6862  1341.9483 H        415 DA      0.0000
    792 H2'        0.4289     7.7744  1342.9141 H        415 DA      0.0000
    793 H2''      -1.2932     7.3081  1343.0334 H        415 DA      0.0000
    794 H1'       -1.2330     6.0598  1341.1139 H        415 DA      0.0000
    795 H8         2.6266     6.3924  1341.6984 H        415 DA      0.0000
    796 H2        -1.7970     1.7228  1341.6395 H        415 DA      0.0000
    797 H61        3.4378     1.5376  1342.5138 H        415 DA      0.0000
    798 H62        2.4452     0.2044  1342.0008 H        415 DA      0.0000
    799 P         -3.1158    10.0807  1342.4034 P.3      416 DT      0.0000
    800 OP1       -4.1280    10.8955  1341.6061 O.co2    416 DT      0.0000
    801 OP2       -2.2144    10.8620  1343.2240 O.co2    416 DT      0.0000
    802 O5'       -4.0976     9.0419  1343.2172 O.3      416 DT      0.0000
    803 C5'       -4.5924     7.9995  1342.2721 C.3      416 DT      0.0000
    804 C4'       -4.5176     6.7162  1343.0598 C.3      416 DT      0.0000
    805 O4'       -3.2026     6.2452  1343.2517 O.3      416 DT      0.0000
    806 C3'       -5.1020     6.8680  1344.4764 C.3      416 DT      0.0000
    807 O3'       -6.4342     6.3893  1344.4780 O.3      416 DT      0.0000
    808 C2'       -4.1404     6.0928  1345.3736 C.3      416 DT      0.0000
    809 C1'       -3.3417     5.3107  1344.4090 C.3      416 DT      0.0000
    810 N1        -1.9995     4.8656  1344.7487 N.am     416 DT      0.0000
    811 C2        -1.8082     3.4944  1344.8867 C.2      416 DT      0.0000
    812 O2        -2.7640     2.7345  1344.7987 O.2      416 DT      0.0000
    813 N3        -0.5486     3.0422  1345.1407 N.am     416 DT      0.0000
    814 C4         0.5249     3.8777  1345.2608 C.2      416 DT      0.0000
    815 O4         1.6674     3.3791  1345.5160 O.2      416 DT      0.0000
    816 C5         0.3075     5.2845  1345.0892 C.2      416 DT      0.0000
    817 C7         1.4599     6.2463  1345.1768 C.3      416 DT      0.0000
    818 C6        -0.9364     5.7250  1344.8335 C.2      416 DT      0.0000
    819 H5'       -5.6189     8.2080  1341.9704 H        416 DT      0.0000
    820 H5''      -3.9448     7.9444  1341.3970 H        416 DT      0.0000
    821 H4'       -5.0859     5.9512  1342.5306 H        416 DT      0.0000
    822 H3'       -5.0946     7.9202  1344.7607 H        416 DT      0.0000
    823 H2'       -3.5078     6.7705  1345.9470 H        416 DT      0.0000
    824 H2''      -4.6912     5.4291  1346.0400 H        416 DT      0.0000
    825 H1'       -3.9258     4.4468  1344.0917 H        416 DT      0.0000
    826 H3        -0.4026     2.0482  1345.2444 H        416 DT      0.0000
    827 H6        -1.1017     6.7828  1344.6913 H        416 DT      0.0000
    828 H71        2.3769     5.6970  1345.3898 H        416 DT      0.0000
    829 H72        1.5649     6.7744  1344.2290 H        416 DT      0.0000
    830 H73        1.2734     6.9653  1345.9746 H        416 DT      0.0000
    831 P         -7.5159     6.5121  1345.5847 P.3      417 DT      0.0000
    832 OP1       -8.9334     6.3696  1344.9726 O.co2    417 DT      0.0000
    833 OP2       -7.3183     7.8430  1346.2146 O.co2    417 DT      0.0000
    834 O5'       -7.3402     5.1845  1346.4670 O.3      417 DT      0.0000
    835 C5'       -7.7550     3.9878  1345.7552 C.3      417 DT      0.0000
    836 C4'       -7.1624     2.8005  1346.4314 C.3      417 DT      0.0000
    837 O4'       -5.7406     2.7764  1346.4080 O.3      417 DT      0.0000
    838 C3'       -7.5837     2.6300  1347.8980 C.3      417 DT      0.0000
    839 O3'       -7.8972     1.2756  1348.1620 O.3      417 DT      0.0000
    840 C2'       -6.2796     3.0187  1348.6343 C.3      417 DT      0.0000
    841 C1'       -5.3136     2.2798  1347.7308 C.3      417 DT      0.0000
    842 N1        -3.9398     2.6404  1348.0285 N.am     417 DT      0.0000
    843 C2        -2.9893     1.6339  1348.0833 C.2      417 DT      0.0000
    844 O2        -3.3430     0.4691  1347.8949 O.2      417 DT      0.0000
    845 N3        -1.6948     1.9814  1348.3492 N.am     417 DT      0.0000
    846 C4        -1.3179     3.2728  1348.5562 C.2      417 DT      0.0000
    847 O4        -0.0984     3.5203  1348.7795 O.2      417 DT      0.0000
    848 C5        -2.3035     4.3005  1348.4911 C.2      417 DT      0.0000
    849 C7        -1.9659     5.7478  1348.7011 C.3      417 DT      0.0000
    850 C6        -3.5701     3.9415  1348.2300 C.2      417 DT      0.0000
    851 H5'       -8.8423     3.9121  1345.7676 H        417 DT      0.0000
    852 H5''      -7.4035     4.0350  1344.7245 H        417 DT      0.0000
    853 H4'       -7.5079     1.9180  1345.8929 H        417 DT      0.0000
    854 H3'       -8.4080     3.2931  1348.1604 H        417 DT      0.0000
    855 H2'       -6.1078     4.0950  1348.6331 H        417 DT      0.0000
    856 H2''      -6.2616     2.6160  1349.6470 H        417 DT      0.0000
    857 H1'       -5.4576     1.2020  1347.8064 H        417 DT      0.0000
    858 H3        -0.9940     1.2554  1348.3936 H        417 DT      0.0000
    859 H6        -4.3269     4.7102  1348.1769 H        417 DT      0.0000
    860 H71       -0.8988     5.8473  1348.9000 H        417 DT      0.0000
    861 H72       -2.2227     6.3140  1347.8058 H        417 DT      0.0000
    862 H73       -2.5311     6.1334  1349.5495 H        417 DT      0.0000
    863 P         -9.1120     0.4899  1348.7700 P.3      418 DC      0.0000
    864 OP1       -9.8609    -0.2840  1347.7021 O.co2    418 DC      0.0000
    865 OP2       -9.8992     1.4967  1349.5050 O.co2    418 DC      0.0000
    866 O5'       -8.2265    -0.6027  1349.5960 O.3      418 DC      0.0000
    867 C5'       -7.3168    -1.1530  1348.5737 C.3      418 DC      0.0000
    868 C4'       -6.4079    -2.1253  1349.2703 C.3      418 DC      0.0000
    869 O4'       -5.1426    -1.5951  1349.5172 O.3      418 DC      0.0000
    870 C3'       -6.9611    -2.7171  1350.5617 C.3      418 DC      0.0000
    871 O3'       -6.9874    -4.1362  1350.4820 O.3      418 DC      0.0000
    872 C2'       -6.0560    -2.0672  1351.6105 C.3      418 DC      0.0000
    873 C1'       -4.7721    -1.8455  1350.9141 C.3      418 DC      0.0000
    874 N1        -4.0347    -0.6224  1351.2462 N.am     418 DC      0.0000
    875 C2        -2.6746    -0.7824  1351.5020 C.2      418 DC      0.0000
    876 O2        -2.1485    -1.8996  1351.5065 O.2      418 DC      0.0000
    877 N3        -1.9452     0.3482  1351.7758 N.2      418 DC      0.0000
    878 C4        -2.5188     1.5856  1351.7659 C.2      418 DC      0.0000
    879 N4        -1.7298     2.6178  1352.0427 N.pl3    418 DC      0.0000
    880 C5        -3.8955     1.7340  1351.4879 C.2      418 DC      0.0000
    881 C6        -4.5987     0.6138  1351.2231 C.2      418 DC      0.0000
    882 H5'       -7.8894    -1.6646  1347.8001 H        418 DC      0.0000
    883 H5''      -6.7293    -0.3495  1348.1295 H        418 DC      0.0000
    884 H4'       -6.2647    -2.9602  1348.5843 H        418 DC      0.0000
    885 H3'       -7.9793    -2.3554  1350.7050 H        418 DC      0.0000
    886 H2'       -6.4780    -1.1207  1351.9484 H        418 DC      0.0000
    887 H2''      -5.9150    -2.7404  1352.4560 H        418 DC      0.0000
    888 H1'       -4.1289    -2.7218  1350.9950 H        418 DC      0.0000
    889 H5        -4.3666     2.7058  1351.4873 H        418 DC      0.0000
    890 H6        -5.6481     0.7025  1350.9841 H        418 DC      0.0000
    891 H41       -0.7513     2.4664  1352.2419 H        418 DC      0.0000
    892 H42       -2.1085     3.5541  1352.0541 H        418 DC      0.0000
    893 P         -7.8392    -5.1368  1351.4341 P.3      419 DA      0.0000
    894 OP1       -8.0790    -6.4067  1350.6403 O.co2    419 DA      0.0000
    895 OP2       -9.1066    -4.4615  1351.7796 O.co2    419 DA      0.0000
    896 O5'       -6.8566    -5.3826  1352.7311 O.3      419 DA      0.0000
    897 C5'       -5.4960    -5.8238  1352.4359 C.3      419 DA      0.0000
    898 C4'       -4.6912    -5.9095  1353.6911 C.3      419 DA      0.0000
    899 O4'       -3.8240    -4.7977  1353.9333 O.3      419 DA      0.0000
    900 C3'       -5.5015    -5.9791  1354.9964 C.3      419 DA      0.0000
    901 O3'       -4.6615    -6.5053  1356.0263 O.3      419 DA      0.0000
    902 C2'       -5.7582    -4.4740  1355.2110 C.3      419 DA      0.0000
    903 C1'       -4.3057    -4.0214  1355.0277 C.3      419 DA      0.0000
    904 N9        -4.2644    -2.5720  1354.9334 N.ar     419 DA      0.0000
    905 C8        -5.2747    -1.6579  1354.8175 C.ar     419 DA      0.0000
    906 N7        -4.8857    -0.3956  1354.7989 N.ar     419 DA      0.0000
    907 C5        -3.5053    -0.4887  1354.9065 C.ar     419 DA      0.0000
    908 C6        -2.4875     0.4962  1354.9410 C.ar     419 DA      0.0000
    909 N6        -2.7007     1.7970  1354.8557 N.pl3    419 DA      0.0000
    910 N1        -1.2089     0.0353  1355.0736 N.ar     419 DA      0.0000
    911 C2        -0.9420    -1.3055  1355.1538 C.ar     419 DA      0.0000
    912 N3        -1.8405    -2.2870  1355.1239 N.ar     419 DA      0.0000
    913 C4        -3.1039    -1.8112  1355.0009 C.ar     419 DA      0.0000
    914 H5'       -5.5316    -6.8061  1351.9647 H        419 DA      0.0000
    915 H5''      -5.0267    -5.1140  1351.7546 H        419 DA      0.0000
    916 H4'       -4.0753    -6.8068  1353.6322 H        419 DA      0.0000
    917 H3'       -6.4252    -6.5464  1354.8827 H        419 DA      0.0000
    918 H2'       -6.4262    -4.0519  1354.4602 H        419 DA      0.0000
    919 H2''      -6.1145    -4.2706  1356.2209 H        419 DA      0.0000
    920 H1'       -3.7486    -4.3151  1355.9173 H        419 DA      0.0000
    921 H8        -6.3131    -1.9463  1354.7466 H        419 DA      0.0000
    922 H2         0.0944    -1.5933  1355.2502 H        419 DA      0.0000
    923 H61       -2.1371     2.6156  1355.0358 H        419 DA      0.0000
    924 H62       -3.6334     2.0230  1354.5410 H        419 DA      0.0000
    925 P         -4.3995    -8.0776  1356.1668 P.3      420 DC      0.0000
    926 OP1       -4.7048    -8.8376  1354.9217 O.co2    420 DC      0.0000
    927 OP2       -5.2997    -8.4483  1357.3097 O.co2    420 DC      0.0000
    928 O5'       -2.8416    -8.1634  1356.4499 O.3      420 DC      0.0000
    929 C5'       -1.8699    -8.1044  1355.3622 C.3      420 DC      0.0000
    930 C4'       -0.6569    -7.4869  1356.0672 C.3      420 DC      0.0000
    931 O4'       -0.9862    -6.1531  1356.3792 O.3      420 DC      0.0000
    932 C3'       -0.2881    -8.1784  1357.3771 C.3      420 DC      0.0000
    933 O3'        1.1079    -8.5476  1357.4450 O.3      420 DC      0.0000
    934 C2'       -0.7031    -7.1702  1358.4593 C.3      420 DC      0.0000
    935 C1'       -0.5030    -5.8748  1357.7831 C.3      420 DC      0.0000
    936 N1        -1.2959    -4.7000  1358.1359 N.am     420 DC      0.0000
    937 C2        -0.6053    -3.4897  1358.1090 C.2      420 DC      0.0000
    938 O2         0.5996    -3.4202  1357.9021 O.2      420 DC      0.0000
    939 N3        -1.3169    -2.3586  1358.3622 N.2      420 DC      0.0000
    940 C4        -2.6515    -2.3753  1358.5955 C.2      420 DC      0.0000
    941 N4        -3.2379    -1.2022  1358.8264 N.pl3    420 DC      0.0000
    942 C5        -3.3476    -3.6154  1358.6021 C.2      420 DC      0.0000
    943 C6        -2.6389    -4.7274  1358.3526 C.2      420 DC      0.0000
    944 H5'       -1.6427    -9.0986  1354.9774 H        420 DC      0.0000
    945 H5''      -2.2244    -7.4532  1354.5632 H        420 DC      0.0000
    946 H4'        0.2007    -7.5016  1355.3945 H        420 DC      0.0000
    947 H3'       -0.8951    -9.0776  1357.4830 H        420 DC      0.0000
    948 H2'       -1.7457    -7.3076  1358.7463 H        420 DC      0.0000
    949 H2''      -0.0521    -7.2527  1359.3295 H        420 DC      0.0000
    950 H1'        0.5567    -5.6201  1357.7698 H        420 DC      0.0000
    951 H5        -4.4082    -3.6606  1358.8006 H        420 DC      0.0000
    952 H6        -3.1523    -5.6770  1358.3229 H        420 DC      0.0000
    953 H41       -2.6908    -0.3533  1358.8154 H        420 DC      0.0000
    954 H42       -4.2298    -1.1614  1359.0126 H        420 DC      0.0000
    955 P          0.2669     8.4838  1360.4045 P.3      420 DG      0.0000
    956 OP1        0.2467     9.9686  1360.5833 O.co2    420 DG      0.0000
    957 OP2       -0.6866     8.0007  1359.3197 O.co2    420 DG      0.0000
    958 O5'        1.8202     7.9803  1360.1973 O.3      420 DG      0.0000
    959 C5'        2.4955     7.2780  1361.2930 C.3      420 DG      0.0000
    960 C4'        3.3530     6.1854  1360.6587 C.3      420 DG      0.0000
    961 O4'        2.6656     4.9677  1360.5629 O.3      420 DG      0.0000
    962 C3'        3.8502     6.5092  1359.2524 C.3      420 DG      0.0000
    963 O3'        5.2063     6.0827  1358.9854 O.3      420 DG      0.0000
    964 C2'        2.8407     5.7768  1358.3501 C.3      420 DG      0.0000
    965 C1'        2.5775     4.5273  1359.1739 C.3      420 DG      0.0000
    966 N9         1.2358     3.9848  1358.9006 N.ar     420 DG      0.0000
    967 C8         0.0594     4.6786  1358.7440 C.ar     420 DG      0.0000
    968 N7        -0.9804     3.9183  1358.5256 N.ar     420 DG      0.0000
    969 C5        -0.4579     2.6306  1358.5504 C.ar     420 DG      0.0000
    970 C6        -1.0797     1.3631  1358.3939 C.2      420 DG      0.0000
    971 O6        -2.2844     1.1491  1358.1971 O.2      420 DG      0.0000
    972 N1        -0.2191     0.2968  1358.4808 N.am     420 DG      0.0000
    973 C2         1.1102     0.4451  1358.7015 C.2      420 DG      0.0000
    974 N2         1.8189    -0.6789  1358.7648 N.pl3    420 DG      0.0000
    975 N3         1.7447     1.6132  1358.8592 N.2      420 DG      0.0000
    976 C4         0.8996     2.6590  1358.7759 C.ar     420 DG      0.0000
    977 H5'        3.1248     7.9716  1361.8508 H        420 DG      0.0000
    978 H5''       1.7568     6.8307  1361.9579 H        420 DG      0.0000
    979 H4'        4.2240     6.0301  1361.2955 H        420 DG      0.0000
    980 H3'        3.7714     7.5829  1359.0819 H        420 DG      0.0000
    981 H2'        1.9322     6.3619  1358.2074 H        420 DG      0.0000
    982 H2''       3.2918     5.5212  1357.3914 H        420 DG      0.0000
    983 H1'        3.3377     3.7735  1358.9687 H        420 DG      0.0000
    984 H8         0.0001     5.7557  1358.7967 H        420 DG      0.0000
    985 H1        -0.5916    -0.6361  1358.3760 H        420 DG      0.0000
    986 H21        1.3610    -1.5717  1358.6498 H        420 DG      0.0000
    987 H22        2.8148    -0.6393  1358.9280 H        420 DG      0.0000
    988 P          5.5265     5.7026  1357.4619 P.3      419 DT      0.0000
    989 OP1        6.9632     5.9220  1357.0710 O.co2    419 DT      0.0000
    990 OP2        4.6278     6.6527  1356.7614 O.co2    419 DT      0.0000
    991 O5'        5.1520     4.1502  1357.3310 O.3      419 DT      0.0000
    992 C5'        6.2226     3.1890  1357.5987 C.3      419 DT      0.0000
    993 C4'        5.9209     1.9139  1356.8416 C.3      419 DT      0.0000
    994 O4'        4.5395     1.6020  1356.8143 O.3      419 DT      0.0000
    995 C3'        6.3615     1.9658  1355.3869 C.3      419 DT      0.0000
    996 O3'        6.9037     0.7223  1354.8918 O.3      419 DT      0.0000
    997 C2'        5.0907     2.3539  1354.6641 C.3      419 DT      0.0000
    998 C1'        4.0954     1.5092  1355.4422 C.3      419 DT      0.0000
    999 N1         2.7821     2.1552  1355.2909 N.am     419 DT      0.0000
   1000 C2         1.6721     1.3234  1355.3976 C.2      419 DT      0.0000
   1001 O2         1.8131     0.1200  1355.5874 O.2      419 DT      0.0000
   1002 N3         0.4416     1.9063  1355.2775 N.am     419 DT      0.0000
   1003 C4         0.2954     3.2436  1355.0599 C.2      419 DT      0.0000
   1004 O4        -0.8931     3.6960  1354.9623 O.2      419 DT      0.0000
   1005 C5         1.4506     4.0696  1354.9535 C.2      419 DT      0.0000
   1006 C7         1.3012     5.5464  1354.7246 C.3      419 DT      0.0000
   1007 C6         2.6500     3.4950  1355.0753 C.2      419 DT      0.0000
   1008 H5'        7.1762     3.5981  1357.2649 H        419 DT      0.0000
   1009 H5''       6.2678     2.9788  1358.6673 H        419 DT      0.0000
   1010 H4'        6.4473     1.0937  1357.3296 H        419 DT      0.0000
   1011 H3'        7.1019     2.7561  1355.2629 H        419 DT      0.0000
   1012 H2'        4.8795     3.4193  1354.7556 H        419 DT      0.0000
   1013 H2''       5.1275     2.0507  1353.6177 H        419 DT      0.0000
   1014 H1'        4.0805     0.4773  1355.0915 H        419 DT      0.0000
   1015 H3        -0.3837     1.3288  1355.3521 H        419 DT      0.0000
   1016 H6         3.5370     4.1066  1355.0011 H        419 DT      0.0000
   1017 H71        0.2430     5.7987  1354.6559 H        419 DT      0.0000
   1018 H72        1.7508     6.0900  1355.5554 H        419 DT      0.0000
   1019 H73        1.8016     5.8227  1353.7964 H        419 DT      0.0000
   1020 P          8.3242     1.0843  1354.1134 P.3      418 DG      0.0000
   1021 OP1        9.5302     0.9479  1354.9847 O.co2    418 DG      0.0000
   1022 OP2        8.0032     2.4755  1353.7079 O.co2    418 DG      0.0000
   1023 O5'        8.3715    -0.0922  1353.0326 O.3      418 DG      0.0000
   1024 C5'        8.7906    -1.4144  1353.4561 C.3      418 DG      0.0000
   1025 C4'        7.6671    -2.3409  1353.0083 C.3      418 DG      0.0000
   1026 O4'        6.4176    -1.7377  1353.2790 O.3      418 DG      0.0000
   1027 C3'        7.6941    -2.6914  1351.5206 C.3      418 DG      0.0000
   1028 O3'        7.7310    -4.0919  1351.3121 O.3      418 DG      0.0000
   1029 C2'        6.4854    -1.9760  1350.9439 C.3      418 DG      0.0000
   1030 C1'        5.5547    -1.8842  1352.1300 C.3      418 DG      0.0000
   1031 N9         4.6614    -0.7292  1352.0065 N.ar     418 DG      0.0000
   1032 C8         4.9932     0.5865  1351.8476 C.ar     418 DG      0.0000
   1033 N7         3.9576     1.3861  1351.7696 N.ar     418 DG      0.0000
   1034 C5         2.8635     0.5368  1351.9071 C.ar     418 DG      0.0000
   1035 C6         1.4659     0.7867  1351.9165 C.2      418 DG      0.0000
   1036 O6         0.9072     1.8744  1351.8175 O.2      418 DG      0.0000
   1037 N1         0.6902    -0.3278  1352.0655 N.am     418 DG      0.0000
   1038 C2         1.2333    -1.5829  1352.1984 C.2      418 DG      0.0000
   1039 N2         0.3620    -2.5830  1352.3340 N.pl3    418 DG      0.0000
   1040 N3         2.5353    -1.8863  1352.2027 N.2      418 DG      0.0000
   1041 C4         3.2912    -0.7721  1352.0520 C.ar     418 DG      0.0000
   1042 H5'        9.7299    -1.6910  1352.9773 H        418 DG      0.0000
   1043 H5''       8.8963    -1.4469  1354.5404 H        418 DG      0.0000
   1044 H4'        7.7344    -3.2657  1353.5813 H        418 DG      0.0000
   1045 H3'        8.5918    -2.2558  1351.0820 H        418 DG      0.0000
   1046 H2'        6.7535    -0.9851  1350.5775 H        418 DG      0.0000
   1047 H2''       6.0337    -2.5687  1350.1483 H        418 DG      0.0000
   1048 H1'        4.9702    -2.8001  1352.2171 H        418 DG      0.0000
   1049 H8         6.0138     0.9352  1351.7915 H        418 DG      0.0000
   1050 H1        -0.3145    -0.2260  1352.0784 H        418 DG      0.0000
   1051 H21       -0.6298    -2.3921  1352.3350 H        418 DG      0.0000
   1052 H22        0.6938    -3.5314  1352.4358 H        418 DG      0.0000
   1053 P          6.8961    -5.1164  1350.4458 P.3      417 DA      0.0000
   1054 OP1        6.6849    -6.4194  1351.2272 O.co2    417 DA      0.0000
   1055 OP2        7.7102    -5.3614  1349.2531 O.co2    417 DA      0.0000
   1056 O5'        5.4142    -4.4626  1350.2710 O.3      417 DA      0.0000
   1057 C5'        4.5467    -4.7649  1351.4275 C.3      417 DA      0.0000
   1058 C4'        3.3964    -5.5861  1350.8996 C.3      417 DA      0.0000
   1059 O4'        2.2429    -4.8151  1350.6774 O.3      417 DA      0.0000
   1060 C3'        3.7052    -6.2517  1349.5592 C.3      417 DA      0.0000
   1061 O3'        3.2149    -7.5690  1349.4840 O.3      417 DA      0.0000
   1062 C2'        3.1677    -5.2404  1348.5626 C.3      417 DA      0.0000
   1063 C1'        2.1162    -4.4467  1349.2864 C.3      417 DA      0.0000
   1064 N9         2.2756    -2.9999  1349.0609 N.ar     417 DA      0.0000
   1065 C8         3.4326    -2.2747  1348.8745 C.ar     417 DA      0.0000
   1066 N7         3.2410    -0.9904  1348.6787 N.ar     417 DA      0.0000
   1067 C5         1.8608    -0.8580  1348.7655 C.ar     417 DA      0.0000
   1068 C6         1.0211     0.2754  1348.6599 C.ar     417 DA      0.0000
   1069 N6         1.4643     1.5019  1348.4474 N.pl3    417 DA      0.0000
   1070 N1        -0.3151     0.0440  1348.7836 N.ar     417 DA      0.0000
   1071 C2        -0.8013    -1.2124  1349.0081 C.ar     417 DA      0.0000
   1072 N3        -0.0673    -2.3172  1349.1240 N.ar     417 DA      0.0000
   1073 C4         1.2589    -2.0746  1348.9879 C.ar     417 DA      0.0000
   1074 H5'        5.1012    -5.3315  1352.1755 H        417 DA      0.0000
   1075 H5''       4.1729    -3.8388  1351.8641 H        417 DA      0.0000
   1076 H4'        3.1607    -6.3627  1351.6273 H        417 DA      0.0000
   1077 H3'        4.7887    -6.2904  1349.4460 H        417 DA      0.0000
   1078 H2'        2.7298    -5.7523  1347.7057 H        417 DA      0.0000
   1079 H2''       3.9701    -4.5809  1348.2320 H        417 DA      0.0000
   1080 H1'        1.1336    -4.7535  1348.9282 H        417 DA      0.0000
   1081 H8         4.4143    -2.7247  1348.8885 H        417 DA      0.0000
   1082 H2        -1.8722    -1.3188  1349.0994 H        417 DA      0.0000
   1083 H61        0.9434     2.3077  1348.7628 H        417 DA      0.0000
   1084 H62        2.3394     1.6360  1347.9612 H        417 DA      0.0000
   1085 P          2.5401    -8.3678  1348.2994 P.3      416 DA      0.0000
   1086 OP1        1.9337    -9.7039  1348.8193 O.co2    416 DA      0.0000
   1087 OP2        3.6677    -8.6765  1347.3657 O.co2    416 DA      0.0000
   1088 O5'        1.3132    -7.5170  1347.7967 O.3      416 DA      0.0000
   1089 C5'       -0.0184    -7.8336  1348.2525 C.3      416 DA      0.0000
   1090 C4'       -0.9633    -6.8826  1347.5506 C.3      416 DA      0.0000
   1091 O4'       -0.4797    -5.5753  1347.4298 O.3      416 DA      0.0000
   1092 C3'       -1.3490    -7.3354  1346.1431 C.3      416 DA      0.0000
   1093 O3'       -2.7518    -7.6597  1346.1116 O.3      416 DA      0.0000
   1094 C2'       -0.8433    -6.2062  1345.2435 C.3      416 DA      0.0000
   1095 C1'       -0.8867    -5.0070  1346.1413 C.3      416 DA      0.0000
   1096 N9         0.0569    -3.9350  1345.8417 N.ar     416 DA      0.0000
   1097 C8         1.4210    -4.0016  1345.6469 C.ar     416 DA      0.0000
   1098 N7         1.9851    -2.8324  1345.4415 N.ar     416 DA      0.0000
   1099 C5         0.9381    -1.9344  1345.5160 C.ar     416 DA      0.0000
   1100 C6         0.8896    -0.5287  1345.3825 C.ar     416 DA      0.0000
   1101 N6         1.9545     0.2293  1345.1394 N.pl3    416 DA      0.0000
   1102 N1        -0.3546     0.0296  1345.5314 N.ar     416 DA      0.0000
   1103 C2        -1.4503    -0.7120  1345.7839 C.ar     416 DA      0.0000
   1104 N3        -1.4805    -2.0408  1345.9228 N.ar     416 DA      0.0000
   1105 C4        -0.2533    -2.5880  1345.7756 C.ar     416 DA      0.0000
   1106 H5'       -0.2664    -8.8638  1347.9974 H        416 DA      0.0000
   1107 H5''      -0.0843    -7.6926  1349.3313 H        416 DA      0.0000
   1108 H4'       -1.8786    -6.8382  1348.1407 H        416 DA      0.0000
   1109 H3'       -0.7847    -8.2378  1345.9081 H        416 DA      0.0000
   1110 H2'        0.1735    -6.4031  1344.9036 H        416 DA      0.0000
   1111 H2''      -1.5101    -6.0694  1344.3922 H        416 DA      0.0000
   1112 H1'       -1.9017    -4.6141  1346.2024 H        416 DA      0.0000
   1113 H8         1.9744    -4.9290  1345.6619 H        416 DA      0.0000
   1114 H2        -2.3882    -0.1857  1345.8830 H        416 DA      0.0000
   1115 H61        1.8751     1.1923  1345.4334 H        416 DA      0.0000
   1116 H62        2.7847    -0.1325  1344.6921 H        416 DA      0.0000
   1117 P         -3.4072    -8.1539  1344.7266 P.3      415 DT      0.0000
   1118 OP1       -4.7659    -8.7814  1344.7848 O.co2    415 DT      0.0000
   1119 OP2       -2.3151    -9.0367  1344.2140 O.co2    415 DT      0.0000
   1120 O5'       -3.6138    -6.6571  1344.0235 O.3      415 DT      0.0000
   1121 C5'       -4.0967    -5.7228  1345.0358 C.3      415 DT      0.0000
   1122 C4'       -4.7852    -4.5847  1344.3529 C.3      415 DT      0.0000
   1123 O4'       -3.9694    -3.4660  1344.1725 O.3      415 DT      0.0000
   1124 C3'       -5.3659    -4.9352  1342.9916 C.3      415 DT      0.0000
   1125 O3'       -6.6112    -4.2787  1342.7243 O.3      415 DT      0.0000
   1126 C2'       -4.1958    -4.5032  1342.0983 C.3      415 DT      0.0000
   1127 C1'       -3.7891    -3.1931  1342.7383 C.3      415 DT      0.0000
   1128 N1        -2.3606    -2.9060  1342.5083 N.am     415 DT      0.0000
   1129 C2        -1.9869    -1.5792  1342.3867 C.2      415 DT      0.0000
   1130 O2        -2.8237    -0.6757  1342.4235 O.2      415 DT      0.0000
   1131 N3        -0.6578    -1.2992  1342.2193 N.am     415 DT      0.0000
   1132 C4         0.2832    -2.2800  1342.1708 C.2      415 DT      0.0000
   1133 O4         1.4872    -1.9309  1341.9853 O.2      415 DT      0.0000
   1134 C5        -0.1198    -3.6367  1342.3192 C.2      415 DT      0.0000
   1135 C7         0.8971    -4.7520  1342.2671 C.3      415 DT      0.0000
   1136 C6        -1.4207    -3.8931  1342.4922 C.2      415 DT      0.0000
   1137 H5'       -4.7980    -6.2308  1345.6979 H        415 DT      0.0000
   1138 H5''      -3.2545    -5.3453  1345.6159 H        415 DT      0.0000
   1139 H4'       -5.6156    -4.2800  1344.9899 H        415 DT      0.0000
   1140 H3'       -5.5001    -6.0144  1342.9196 H        415 DT      0.0000
   1141 H2'       -3.3834    -5.2293  1342.1289 H        415 DT      0.0000
   1142 H2''      -4.5316    -4.3436  1341.0737 H        415 DT      0.0000
   1143 H1'       -4.4218    -2.3706  1342.4043 H        415 DT      0.0000
   1144 H3        -0.3672    -0.3361  1342.1292 H        415 DT      0.0000
   1145 H6        -1.7375    -4.9172  1342.6235 H        415 DT      0.0000
   1146 H71        0.9246    -5.1725  1341.2619 H        415 DT      0.0000
   1147 H72        0.6198    -5.5297  1342.9786 H        415 DT      0.0000
   1148 H73        1.8809    -4.3589  1342.5236 H        415 DT      0.0000
   1149 P         -7.2372    -4.5291  1341.2344 P.3      414 DT      0.0000
   1150 OP1       -8.5376    -5.3211  1341.3824 O.co2    414 DT      0.0000
   1151 OP2       -6.1989    -5.3827  1340.5646 O.co2    414 DT      0.0000
   1152 O5'       -7.4664    -3.1417  1340.5824 O.3      414 DT      0.0000
   1153 C5'       -7.7622    -1.9644  1341.3338 C.3      414 DT      0.0000
   1154 C4'       -7.2289    -0.7847  1340.5858 C.3      414 DT      0.0000
   1155 O4'       -5.8401    -0.6016  1340.5288 O.3      414 DT      0.0000
   1156 C3'       -7.6800    -0.6076  1339.1197 C.3      414 DT      0.0000
   1157 O3'       -7.7484     0.8178  1339.0160 O.3      414 DT      0.0000
   1158 C2'       -6.4805    -1.1841  1338.3560 C.3      414 DT      0.0000
   1159 C1'       -5.3999    -0.4590  1339.1317 C.3      414 DT      0.0000
   1160 N1        -4.0502    -1.0206  1339.0255 N.am     414 DT      0.0000
   1161 C2        -3.0081    -0.0836  1339.0249 C.2      414 DT      0.0000
   1162 O2        -3.2404     1.1263  1339.0679 O.2      414 DT      0.0000
   1163 N3        -1.7342    -0.5717  1338.9715 N.am     414 DT      0.0000
   1164 C4        -1.4567    -1.9051  1338.9117 C.2      414 DT      0.0000
   1165 O4        -0.2406    -2.2580  1338.8493 O.2      414 DT      0.0000
   1166 C5        -2.5329    -2.8339  1338.9200 C.2      414 DT      0.0000
   1167 C7        -2.2391    -4.3183  1338.8585 C.3      414 DT      0.0000
   1168 C6        -3.7774    -2.3519  1338.9864 C.2      414 DT      0.0000
   1169 H5'       -8.8409    -1.8663  1341.4560 H        414 DT      0.0000
   1170 H5''      -7.2859    -2.0243  1342.3123 H        414 DT      0.0000
   1171 H4'       -7.6133     0.0884  1341.1130 H        414 DT      0.0000
   1172 H3'       -8.6219    -1.1062  1338.8910 H        414 DT      0.0000
   1173 H2'       -6.4891    -0.9123  1337.3004 H        414 DT      0.0000
   1174 H2''      -6.4075    -2.2636  1338.4876 H        414 DT      0.0000
   1175 H1'       -5.3863     0.5946  1338.8527 H        414 DT      0.0000
   1176 H3        -0.9649     0.0827  1338.9763 H        414 DT      0.0000
   1177 H6        -4.6015    -3.0496  1339.0101 H        414 DT      0.0000
   1178 H71       -1.1614    -4.4742  1338.8097 H        414 DT      0.0000
   1179 H72       -2.7082    -4.7449  1337.9719 H        414 DT      0.0000
   1180 H73       -2.6365    -4.8045  1339.7495 H        414 DT      0.0000
   1181 P         -8.3998     1.6377  1337.8697 P.3      413 DC      0.0000
   1182 OP1       -9.3109     2.7051  1338.4789 O.co2    413 DC      0.0000
   1183 OP2       -9.2219     0.6618  1337.0879 O.co2    413 DC      0.0000
   1184 O5'       -7.0817     2.2460  1337.1303 O.3      413 DC      0.0000
   1185 C5'       -6.4120     3.3295  1337.8548 C.3      413 DC      0.0000
   1186 C4'       -5.8635     4.2598  1336.8043 C.3      413 DC      0.0000
   1187 O4'       -4.4939     4.0394  1336.5590 O.3      413 DC      0.0000
   1188 C3'       -6.5503     4.1804  1335.4399 C.3      413 DC      0.0000
   1189 O3'       -6.6122     5.4197  1334.7306 O.3      413 DC      0.0000
   1190 C2'       -5.6969     3.1048  1334.7538 C.3      413 DC      0.0000
   1191 C1'       -4.3003     3.3946  1335.3004 C.3      413 DC      0.0000
   1192 N1        -3.5797     2.1052  1335.4182 N.am     413 DC      0.0000
   1193 C2        -2.1866     2.1573  1335.4354 C.2      413 DC      0.0000
   1194 O2        -1.5852     3.2380  1335.3667 O.2      413 DC      0.0000
   1195 N3        -1.5166     0.9683  1335.5386 N.2      413 DC      0.0000
   1196 C4        -2.1661    -0.2231  1335.6094 C.2      413 DC      0.0000
   1197 N4        -1.4680    -1.3562  1335.7113 N.pl3    413 DC      0.0000
   1198 C5        -3.5885    -0.2480  1335.5843 C.2      413 DC      0.0000
   1199 C6        -4.2458     0.9205  1335.4907 C.2      413 DC      0.0000
   1200 H5'       -7.1241     3.8554  1338.4908 H        413 DC      0.0000
   1201 H5''      -5.5985     2.9275  1338.4587 H        413 DC      0.0000
   1202 H4'       -5.9748     5.2795  1337.1731 H        413 DC      0.0000
   1203 H3'       -7.5620     3.7979  1335.5741 H        413 DC      0.0000
   1204 H2'       -5.7257     3.2114  1333.6694 H        413 DC      0.0000
   1205 H2''      -6.0252     2.1084  1335.0497 H        413 DC      0.0000
   1206 H1'       -3.7657     4.0585  1334.6210 H        413 DC      0.0000
   1207 H5        -4.1265    -1.1829  1335.6390 H        413 DC      0.0000
   1208 H6        -5.3257     0.9194  1335.4726 H        413 DC      0.0000
   1209 H41       -0.4586    -1.3274  1335.7320 H        413 DC      0.0000
   1210 H42       -1.9492    -2.2425  1335.7677 H        413 DC      0.0000
   1211 P         -6.4709     5.6061  1333.0986 P.3      412 DA      0.0000
   1212 OP1       -7.1418     6.9056  1332.7091 O.co2    412 DA      0.0000
   1213 OP2       -7.0992     4.3834  1332.5285 O.co2    412 DA      0.0000
   1214 O5'       -4.8939     5.7912  1332.9331 O.3      412 DA      0.0000
   1215 C5'       -4.2941     7.0622  1333.3985 C.3      412 DA      0.0000
   1216 C4'       -3.0577     7.1609  1332.5212 C.3      412 DA      0.0000
   1217 O4'       -2.1849     6.0558  1332.7886 O.3      412 DA      0.0000
   1218 C3'       -3.3655     7.0570  1331.0168 C.3      412 DA      0.0000
   1219 O3'       -2.2814     7.5204  1330.2278 O.3      412 DA      0.0000
   1220 C2'       -3.3796     5.5287  1330.8293 C.3      412 DA      0.0000
   1221 C1'       -2.0430     5.2909  1331.5840 C.3      412 DA      0.0000
   1222 N9        -1.9588     3.8413  1331.7294 N.ar     412 DA      0.0000
   1223 C8        -3.0169     2.9630  1331.8023 C.ar     412 DA      0.0000
   1224 N7        -2.6469     1.7122  1331.9169 N.ar     412 DA      0.0000
   1225 C5        -1.2423     1.7821  1331.9105 C.ar     412 DA      0.0000
   1226 C6        -0.2579     0.7608  1332.0105 C.ar     412 DA      0.0000
   1227 N6        -0.5447    -0.5384  1332.1333 N.pl3    412 DA      0.0000
   1228 N1         1.0271     1.2122  1331.9753 N.ar     412 DA      0.0000
   1229 C2         1.3187     2.5306  1331.8564 C.ar     412 DA      0.0000
   1230 N3         0.4474     3.5395  1331.7650 N.ar     412 DA      0.0000
   1231 C4        -0.8166     3.0821  1331.7925 C.ar     412 DA      0.0000
   1232 H5'       -4.9671     7.9032  1333.2318 H        412 DA      0.0000
   1233 H5''      -4.0157     6.9943  1334.4501 H        412 DA      0.0000
   1234 H4'       -2.5373     8.0967  1332.7252 H        412 DA      0.0000
   1235 H3'       -4.3130     7.5235  1330.7472 H        412 DA      0.0000
   1236 H2'       -4.2314     5.0487  1331.3110 H        412 DA      0.0000
   1237 H2''      -3.3030     5.2515  1329.7780 H        412 DA      0.0000
   1238 H1'       -1.2041     5.6623  1330.9956 H        412 DA      0.0000
   1239 H8        -4.0502     3.2752  1331.7683 H        412 DA      0.0000
   1240 H2         2.3659     2.7934  1331.8332 H        412 DA      0.0000
   1241 H61       -1.5074    -0.8429  1332.1581 H        412 DA      0.0000
   1242 H62        0.2011    -1.2160  1332.2014 H        412 DA      0.0000
   1243 P         -2.5113     8.6007  1329.0869 P.3      411 DC      0.0000
   1244 OP1       -2.4756     9.9044  1329.8671 O.co2    411 DC      0.0000
   1245 OP2       -3.7704     8.3985  1328.3612 O.co2    411 DC      0.0000
   1246 O5'       -1.2249     8.2889  1328.1110 O.3      411 DC      0.0000
   1247 C5'        0.0937     8.2664  1328.7800 C.3      411 DC      0.0000
   1248 C4'        0.9382     7.1988  1328.1360 C.3      411 DC      0.0000
   1249 O4'        0.8435     5.9307  1328.7731 O.3      411 DC      0.0000
   1250 C3'        0.5816     6.9640  1326.6582 C.3      411 DC      0.0000
   1251 O3'        1.6919     6.6013  1325.8469 O.3      411 DC      0.0000
   1252 C2'       -0.3567     5.7238  1326.8238 C.3      411 DC      0.0000
   1253 C1'        0.6853     4.9576  1327.7194 C.3      411 DC      0.0000
   1254 N1         0.1490     3.6430  1327.9573 N.am     411 DC      0.0000
   1255 C2         1.0269     2.6191  1328.2744 C.2      411 DC      0.0000
   1256 O2         2.2547     2.6467  1328.4149 O.2      411 DC      0.0000
   1257 N3         0.5096     1.3690  1328.4726 N.2      411 DC      0.0000
   1258 C4        -0.8287     1.1119  1328.3567 C.2      411 DC      0.0000
   1259 N4        -1.2918    -0.1292  1328.5727 N.pl3    411 DC      0.0000
   1260 C5        -1.7171     2.1726  1328.0270 C.2      411 DC      0.0000
   1261 C6        -1.1873     3.3863  1327.8353 C.2      411 DC      0.0000
   1262 H5'        0.5790     9.2361  1328.6685 H        411 DC      0.0000
   1263 H5''      -0.0365     8.0415  1329.8386 H        411 DC      0.0000
   1264 H4'        1.9785     7.5206  1328.1827 H        411 DC      0.0000
   1265 H3'        0.0447     7.8150  1326.2391 H        411 DC      0.0000
   1266 H2'       -1.2889     5.9512  1327.3409 H        411 DC      0.0000
   1267 H2''      -0.5305     5.2151  1325.8756 H        411 DC      0.0000
   1268 H1'        1.6249     4.8662  1327.1745 H        411 DC      0.0000
   1269 H5        -2.7800     2.0046  1327.9349 H        411 DC      0.0000
   1270 H6        -1.8464     4.2004  1327.5721 H        411 DC      0.0000
   1271 H41       -0.6516    -0.8723  1328.8132 H        411 DC      0.0000
   1272 H42       -2.2806    -0.3200  1328.4948 H        411 DC      0.0000
   1273 P          3.2534    -9.4761  1362.4460 P.3      421 DG      0.0000
   1274 OP1        3.0100   -10.9398  1362.4445 O.co2    421 DG      0.0000
   1275 OP2        2.3160    -8.8721  1363.5017 O.co2    421 DG      0.0000
   1276 O5'        4.7606    -8.9984  1362.6244 O.3      421 DG      0.0000
   1277 C5'        5.6884    -8.5265  1361.6244 C.3      421 DG      0.0000
   1278 C4'        6.3026    -7.2351  1362.1232 C.3      421 DG      0.0000
   1279 O4'        5.5715    -6.1032  1361.7041 O.3      421 DG      0.0000
   1280 C3'        6.5179    -7.0828  1363.6154 C.3      421 DG      0.0000
   1281 O3'        7.8974    -6.7492  1363.9274 O.3      421 DG      0.0000
   1282 C2'        5.5310    -6.0110  1364.0373 C.3      421 DG      0.0000
   1283 C1'        5.3346    -5.1964  1362.7816 C.3      421 DG      0.0000
   1284 N9         3.9725    -4.6332  1362.7526 N.ar     421 DG      0.0000
   1285 C8         2.7672    -5.2537  1362.9815 C.ar     421 DG      0.0000
   1286 N7         1.7272    -4.4556  1362.8918 N.ar     421 DG      0.0000
   1287 C5         2.2847    -3.2197  1362.5748 C.ar     421 DG      0.0000
   1288 C6         1.6984    -1.9499  1362.3488 C.2      421 DG      0.0000
   1289 O6         0.5052    -1.6465  1362.3701 O.2      421 DG      0.0000
   1290 N1         2.5805    -0.9429  1362.0673 N.am     421 DG      0.0000
   1291 C2         3.8612    -1.1225  1362.0067 C.2      421 DG      0.0000
   1292 N2         4.4512    -0.0303  1361.7099 N.pl3    421 DG      0.0000
   1293 N3         4.5321    -2.3317  1362.2154 N.2      421 DG      0.0000
   1294 C4         3.6611    -3.3138  1362.4880 C.ar     421 DG      0.0000
   1295 H5'        6.4698    -9.2698  1361.4657 H        421 DG      0.0000
   1296 H5''       5.1592    -8.3444  1360.6891 H        421 DG      0.0000
   1297 H4'        7.2856    -7.1593  1361.6585 H        421 DG      0.0000
   1298 H3'        6.2584    -8.0192  1364.1094 H        421 DG      0.0000
   1299 H2'        4.5907    -6.4548  1364.3643 H        421 DG      0.0000
   1300 H2''       5.9555    -5.3934  1364.8288 H        421 DG      0.0000
   1301 H1'        6.0663    -4.3891  1362.7497 H        421 DG      0.0000
   1302 H8         2.6826    -6.3049  1363.2146 H        421 DG      0.0000
   1303 H1         2.2157    -0.0163  1361.8989 H        421 DG      0.0000
   1304 H21        3.9124     0.8117  1361.5655 H        421 DG      0.0000
   1305 H22        5.4569    -0.0079  1361.6194 H        421 DG      0.0000
   1306 P          8.3530    -6.2551  1365.3559 P.3      422 DT      0.0000
   1307 OP1        9.6594    -6.8047  1365.8676 O.co2    422 DT      0.0000
   1308 OP2        7.2826    -6.8718  1366.2746 O.co2    422 DT      0.0000
   1309 O5'        8.2191    -4.7110  1365.3845 O.3      422 DT      0.0000
   1310 C5'        9.3533    -3.8124  1365.2405 C.3      422 DT      0.0000
   1311 C4'        8.7502    -2.4245  1365.2980 C.3      422 DT      0.0000
   1312 O4'        7.3666    -2.4326  1365.0229 O.3      422 DT      0.0000
   1313 C3'        8.8745    -1.6932  1366.6108 C.3      422 DT      0.0000
   1314 O3'        9.7125    -0.5434  1366.4226 O.3      422 DT      0.0000
   1315 C2'        7.4522    -1.2937  1367.0030 C.3      422 DT      0.0000
   1316 C1'        6.7904    -1.2501  1365.6503 C.3      422 DT      0.0000
   1317 N1         5.3467    -1.4666  1365.7469 N.am     422 DT      0.0000
   1318 C2         4.5324    -0.3846  1365.5490 C.2      422 DT      0.0000
   1319 O2         4.9726     0.7377  1365.3108 O.2      422 DT      0.0000
   1320 N3         3.1825    -0.5971  1365.6300 N.am     422 DT      0.0000
   1321 C4         2.6436    -1.8107  1365.8859 C.2      422 DT      0.0000
   1322 O4         1.3862    -1.8507  1365.9312 O.2      422 DT      0.0000
   1323 C5         3.5114    -2.9320  1366.0856 C.2      422 DT      0.0000
   1324 C7         2.9561    -4.2906  1366.3655 C.3      422 DT      0.0000
   1325 C6         4.8304    -2.7148  1366.0041 C.2      422 DT      0.0000
   1326 H5'       10.0643    -3.9570  1366.0540 H        422 DT      0.0000
   1327 H5''       9.8418    -3.9722  1364.2793 H        422 DT      0.0000
   1328 H4'        9.2371    -1.8191  1364.5335 H        422 DT      0.0000
   1329 H3'        9.3025    -2.3502  1367.3679 H        422 DT      0.0000
   1330 H2'        6.9907    -2.0382  1367.6518 H        422 DT      0.0000
   1331 H2''       7.4411    -0.3100  1367.4722 H        422 DT      0.0000
   1332 H1'        7.0324    -0.3379  1365.1049 H        422 DT      0.0000
   1333 H3         2.5615     0.1874  1365.4925 H        422 DT      0.0000
   1334 H6         5.5081    -3.5440  1366.1445 H        422 DT      0.0000
   1335 H71        3.0009    -4.8956  1365.4600 H        422 DT      0.0000
   1336 H72        1.9196    -4.1992  1366.6903 H        422 DT      0.0000
   1337 H73        3.5422    -4.7680  1367.1508 H        422 DT      0.0000
   1338 P         10.6681    -0.2359  1367.7025 P.3      423 DG      0.0000
   1339 OP1       11.9225     0.2498  1366.9874 O.co2    423 DG      0.0000
   1340 OP2       10.8548    -1.4629  1368.4560 O.co2    423 DG      0.0000
   1341 O5'        9.7435     0.9632  1368.3120 O.3      423 DG      0.0000
   1342 C5'        9.3478     1.8783  1367.2214 C.3      423 DG      0.0000
   1343 C4'        8.2484     2.7568  1367.7415 C.3      423 DG      0.0000
   1344 O4'        6.9371     2.2927  1367.5609 O.3      423 DG      0.0000
   1345 C3'        8.4049     3.0711  1369.2495 C.3      423 DG      0.0000
   1346 O3'        8.3854     4.5104  1369.4084 O.3      423 DG      0.0000
   1347 C2'        7.2731     2.3063  1369.9021 C.3      423 DG      0.0000
   1348 C1'        6.2003     2.3565  1368.8205 C.3      423 DG      0.0000
   1349 N9         5.2201     1.2780  1368.9901 N.ar     423 DG      0.0000
   1350 C8         5.4367    -0.0299  1369.3263 C.ar     423 DG      0.0000
   1351 N7         4.3474    -0.7613  1369.4120 N.ar     423 DG      0.0000
   1352 C5         3.3389     0.1413  1369.0820 C.ar     423 DG      0.0000
   1353 C6         1.9284    -0.0317  1368.9877 C.2      423 DG      0.0000
   1354 O6         1.2686    -1.0639  1369.1800 O.2      423 DG      0.0000
   1355 N1         1.2366     1.1097  1368.6526 N.am     423 DG      0.0000
   1356 C2         1.8678     2.2952  1368.4288 C.2      423 DG      0.0000
   1357 N2         1.0362     3.2989  1368.1200 N.pl3    423 DG      0.0000
   1358 N3         3.1801     2.5063  1368.4999 N.2      423 DG      0.0000
   1359 C4         3.8578     1.3924  1368.8265 C.ar     423 DG      0.0000
   1360 H5'       10.1998     2.4882  1366.9210 H        423 DG      0.0000
   1361 H5''       8.9876     1.3023  1366.3690 H        423 DG      0.0000
   1362 H4'        8.3239     3.7060  1367.2109 H        423 DG      0.0000
   1363 H3'        9.3586     2.6801  1369.6043 H        423 DG      0.0000
   1364 H2'        7.5643     1.2799  1370.1250 H        423 DG      0.0000
   1365 H2''       6.9344     2.8153  1370.8045 H        423 DG      0.0000
   1366 H1'        5.6844     3.3148  1368.8795 H        423 DG      0.0000
   1367 H8         6.4235    -0.4299  1369.5069 H        423 DG      0.0000
   1368 H1         0.2309     1.0669  1368.5703 H        423 DG      0.0000
   1369 H21        0.0412     3.1330  1368.0698 H        423 DG      0.0000
   1370 H22        1.4042     4.2216  1367.9374 H        423 DG      0.0000
   1371 P          8.6353     5.1838  1370.7968 P.3      424 DA      0.0000
   1372 OP1       10.0541     5.4906  1371.1522 O.co2    424 DA      0.0000
   1373 OP2        8.1727     3.9766  1371.6925 O.co2    424 DA      0.0000
   1374 O5'        7.5272     6.2905  1371.0459 O.3      424 DA      0.0000
   1375 C5'        6.7762     6.9514  1370.0169 C.3      424 DA      0.0000
   1376 C4'        5.3323     6.9196  1370.4912 C.3      424 DA      0.0000
   1377 O4'        4.8140     5.6097  1370.4008 O.3      424 DA      0.0000
   1378 C3'        5.0789     7.3999  1371.9202 C.3      424 DA      0.0000
   1379 O3'        3.9684     8.3191  1371.9725 O.3      424 DA      0.0000
   1380 C2'        4.8017     6.0830  1372.6557 C.3      424 DA      0.0000
   1381 C1'        4.0011     5.3677  1371.5781 C.3      424 DA      0.0000
   1382 N9         3.8583     3.9263  1371.8065 N.ar     424 DA      0.0000
   1383 C8         4.8123     2.9727  1372.0222 C.ar     424 DA      0.0000
   1384 N7         4.3277     1.7620  1372.1872 N.ar     424 DA      0.0000
   1385 C5         2.9582     1.9300  1372.0470 C.ar     424 DA      0.0000
   1386 C6         1.8923     1.0051  1372.0950 C.ar     424 DA      0.0000
   1387 N6         2.0377    -0.3037  1372.3148 N.pl3    424 DA      0.0000
   1388 N1         0.6491     1.5389  1371.9052 N.ar     424 DA      0.0000
   1389 C2         0.4790     2.8635  1371.6874 C.ar     424 DA      0.0000
   1390 N3         1.4334     3.7915  1371.6292 N.ar     424 DA      0.0000
   1391 C4         2.6501     3.2484  1371.8160 C.ar     424 DA      0.0000
   1392 H5'        6.8786     6.4218  1369.0697 H        424 DA      0.0000
   1393 H5''       7.1134     7.9823  1369.9091 H        424 DA      0.0000
   1394 H4'        4.7502     7.5525  1369.8214 H        424 DA      0.0000
   1395 H3'        5.9757     7.8719  1372.3217 H        424 DA      0.0000
   1396 H2'        5.7211     5.5515  1372.9012 H        424 DA      0.0000
   1397 H2''       4.1967     6.2516  1373.5466 H        424 DA      0.0000
   1398 H1'        3.0214     5.8316  1371.4636 H        424 DA      0.0000
   1399 H8         5.8690     3.1935  1372.0543 H        424 DA      0.0000
   1400 H2        -0.5362     3.2040  1371.5461 H        424 DA      0.0000
   1401 H61        2.9038    -0.8143  1372.2174 H        424 DA      0.0000
   1402 H62        1.2477    -0.9091  1372.1432 H        424 DA      0.0000
   1403 P          3.8535     9.4947  1373.1140 P.3      425 DA      0.0000
   1404 OP1        3.8495    10.8477  1372.4469 O.co2    425 DA      0.0000
   1405 OP2        5.0391     9.2018  1373.9449 O.co2    425 DA      0.0000
   1406 O5'        2.3599     9.3141  1373.6448 O.3      425 DA      0.0000
   1407 C5'        1.2057     9.4669  1372.8205 C.3      425 DA      0.0000
   1408 C4'        0.1261     8.5353  1373.3428 C.3      425 DA      0.0000
   1409 O4'        0.5707     7.2084  1373.3710 O.3      425 DA      0.0000
   1410 C3'       -0.4606     8.8407  1374.7101 C.3      425 DA      0.0000
   1411 O3'       -1.8497     9.1600  1374.6323 O.3      425 DA      0.0000
   1412 C2'       -0.1235     7.5949  1375.5388 C.3      425 DA      0.0000
   1413 C1'        0.0411     6.5116  1374.5450 C.3      425 DA      0.0000
   1414 N9         0.9543     5.3857  1374.8131 N.ar     425 DA      0.0000
   1415 C8         2.3231     5.3666  1374.9283 C.ar     425 DA      0.0000
   1416 N7         2.8309     4.1687  1375.0975 N.ar     425 DA      0.0000
   1417 C5         1.7214     3.3301  1375.0606 C.ar     425 DA      0.0000
   1418 C6         1.5975     1.9166  1375.1810 C.ar     425 DA      0.0000
   1419 N6         2.6005     1.0690  1375.3726 N.pl3    425 DA      0.0000
   1420 N1         0.3206     1.4230  1375.0828 N.ar     425 DA      0.0000
   1421 C2        -0.7371     2.2644  1374.8938 C.ar     425 DA      0.0000
   1422 N3        -0.6919     3.5874  1374.7859 N.ar     425 DA      0.0000
   1423 C4         0.5682     4.0576  1374.8778 C.ar     425 DA      0.0000
   1424 H5'        1.4505     9.2076  1371.7904 H        425 DA      0.0000
   1425 H5''       0.8551    10.4979  1372.8664 H        425 DA      0.0000
   1426 H4'       -0.6976     8.5765  1372.6301 H        425 DA      0.0000
   1427 H3'        0.0694     9.6939  1375.1333 H        425 DA      0.0000
   1428 H2'        0.7994     7.7451  1376.0991 H        425 DA      0.0000
   1429 H2''      -0.9431     7.3615  1376.2184 H        425 DA      0.0000
   1430 H1'       -0.9425     6.1117  1374.2990 H        425 DA      0.0000
   1431 H8         2.9285     6.2598  1374.8834 H        425 DA      0.0000
   1432 H2        -1.7128     1.8066  1374.8246 H        425 DA      0.0000
   1433 H61        3.5072     1.3718  1375.6988 H        425 DA      0.0000
   1434 H62        2.4522     0.0875  1375.1858 H        425 DA      0.0000
   1435 P         -2.6313    10.2179  1375.5885 P.3      426 DT      0.0000
   1436 OP1       -3.6035    11.0800  1374.7912 O.co2    426 DT      0.0000
   1437 OP2       -1.6937    10.9553  1376.4091 O.co2    426 DT      0.0000
   1438 O5'       -3.6616     9.2271  1376.4022 O.3      426 DT      0.0000
   1439 C5'       -4.2055     8.2095  1375.4571 C.3      426 DT      0.0000
   1440 C4'       -4.1921     6.9241  1376.2448 C.3      426 DT      0.0000
   1441 O4'       -2.9010     6.3909  1376.4368 O.3      426 DT      0.0000
   1442 C3'       -4.7685     7.1035  1377.6614 C.3      426 DT      0.0000
   1443 O3'       -6.1221     6.6890  1377.6631 O.3      426 DT      0.0000
   1444 C2'       -3.8449     6.2834  1378.5586 C.3      426 DT      0.0000
   1445 C1'       -3.0845     5.4640  1377.5940 C.3      426 DT      0.0000
   1446 N1        -1.7651     4.9555  1377.9338 N.am     426 DT      0.0000
   1447 C2        -1.6394     3.5767  1378.0717 C.2      426 DT      0.0000
   1448 O2        -2.6304     2.8632  1377.9837 O.2      426 DT      0.0000
   1449 N3        -0.4028     3.0649  1378.3257 N.am     426 DT      0.0000
   1450 C4         0.7093     3.8483  1378.4459 C.2      426 DT      0.0000
   1451 O4         1.8267     3.2957  1378.7011 O.2      426 DT      0.0000
   1452 C5         0.5593     5.2638  1378.2743 C.2      426 DT      0.0000
   1453 C7         1.7563     6.1696  1378.3618 C.3      426 DT      0.0000
   1454 C6        -0.6622     5.7632  1378.0185 C.2      426 DT      0.0000
   1455 H5'       -5.2209     8.4667  1375.1554 H        426 DT      0.0000
   1456 H5''      -3.5613     8.1236  1374.5821 H        426 DT      0.0000
   1457 H4'       -4.7962     6.1871  1375.7157 H        426 DT      0.0000
   1458 H3'       -4.7109     8.1542  1377.9457 H        426 DT      0.0000
   1459 H2'       -3.1808     6.9301  1379.1321 H        426 DT      0.0000
   1460 H2''      -4.4268     5.6467  1379.2251 H        426 DT      0.0000
   1461 H1'       -3.7092     4.6291  1377.2767 H        426 DT      0.0000
   1462 H3        -0.3044     2.0651  1378.4294 H        426 DT      0.0000
   1463 H6        -0.7768     6.8277  1377.8764 H        426 DT      0.0000
   1464 H71        2.6460     5.5771  1378.5748 H        426 DT      0.0000
   1465 H72        1.8863     6.6920  1377.4140 H        426 DT      0.0000
   1466 H73        1.6042     6.8966  1379.1596 H        426 DT      0.0000
   1467 P         -7.1966     6.8633  1378.7697 P.3      427 DT      0.0000
   1468 OP1       -8.6194     6.7885  1378.1576 O.co2    427 DT      0.0000
   1469 OP2       -6.9358     8.1833  1379.3997 O.co2    427 DT      0.0000
   1470 O5'       -7.0845     5.5288  1379.6520 O.3      427 DT      0.0000
   1471 C5'       -7.5559     4.3533  1378.9402 C.3      427 DT      0.0000
   1472 C4'       -7.0206     3.1391  1379.6164 C.3      427 DT      0.0000
   1473 O4'       -5.6016     3.0471  1379.5931 O.3      427 DT      0.0000
   1474 C3'       -7.4496     2.9888  1381.0830 C.3      427 DT      0.0000
   1475 O3'       -7.8273     1.6509  1381.3471 O.3      427 DT      0.0000
   1476 C2'       -6.1285     3.3148  1381.8194 C.3      427 DT      0.0000
   1477 C1'       -5.1988     2.5307  1380.9158 C.3      427 DT      0.0000
   1478 N1        -3.8094     2.8254  1381.2135 N.am     427 DT      0.0000
   1479 C2        -2.9080     1.7747  1381.2683 C.2      427 DT      0.0000
   1480 O2        -3.3168     0.6280  1381.0799 O.2      427 DT      0.0000
   1481 N3        -1.5983     2.0600  1381.5342 N.am     427 DT      0.0000
   1482 C4        -1.1603     3.3320  1381.7413 C.2      427 DT      0.0000
   1483 O4         0.0696     3.5210  1381.9646 O.2      427 DT      0.0000
   1484 C5        -2.0957     4.4055  1381.6762 C.2      427 DT      0.0000
   1485 C7        -1.6894     5.8350  1381.8861 C.3      427 DT      0.0000
   1486 C6        -3.3780     4.1074  1381.4151 C.2      427 DT      0.0000
   1487 H5'       -8.6456     4.3295  1378.9527 H        427 DT      0.0000
   1488 H5''      -7.2025     4.3836  1377.9095 H        427 DT      0.0000
   1489 H4'       -7.4078     2.2741  1379.0779 H        427 DT      0.0000
   1490 H3'       -8.2413     3.6905  1381.3455 H        427 DT      0.0000
   1491 H2'       -5.9055     4.3817  1381.8181 H        427 DT      0.0000
   1492 H2''      -6.1296     2.9117  1382.8321 H        427 DT      0.0000
   1493 H1'       -5.3941     1.4610  1380.9914 H        427 DT      0.0000
   1494 H3        -0.9330     1.3014  1381.5786 H        427 DT      0.0000
   1495 H6        -4.0973     4.9113  1381.3620 H        427 DT      0.0000
   1496 H71       -0.6188     5.8836  1382.0850 H        427 DT      0.0000
   1497 H72       -1.9189     6.4129  1380.9908 H        427 DT      0.0000
   1498 H73       -2.2356     6.2472  1382.7345 H        427 DT      0.0000
   1499 P         -9.0783     0.9240  1381.9550 P.3      428 DC      0.0000
   1500 OP1       -9.8633     0.1868  1380.8871 O.co2    428 DC      0.0000
   1501 OP2       -9.8165     1.9673  1382.6900 O.co2    428 DC      0.0000
   1502 O5'       -8.2459    -0.2095  1382.7810 O.3      428 DC      0.0000
   1503 C5'       -7.3635    -0.8026  1381.7588 C.3      428 DC      0.0000
   1504 C4'       -6.5020    -1.8171  1382.4553 C.3      428 DC      0.0000
   1505 O4'       -5.2129    -1.3479  1382.7022 O.3      428 DC      0.0000
   1506 C3'       -7.0828    -2.3819  1383.7468 C.3      428 DC      0.0000
   1507 O3'       -7.1767    -3.7981  1383.6671 O.3      428 DC      0.0000
   1508 C2'       -6.1478    -1.7759  1384.7955 C.3      428 DC      0.0000
   1509 C1'       -4.8547    -1.6157  1384.0991 C.3      428 DC      0.0000
   1510 N1        -4.0598    -0.4292  1384.4312 N.am     428 DC      0.0000
   1511 C2        -2.7089    -0.6539  1384.6870 C.2      428 DC      0.0000
   1512 O2        -2.2367    -1.7949  1384.6915 O.2      428 DC      0.0000
   1513 N3        -1.9263     0.4406  1384.9608 N.2      428 DC      0.0000
   1514 C4        -2.4403     1.7039  1384.9509 C.2      428 DC      0.0000
   1515 N4        -1.6029     2.6974  1385.2278 N.pl3    428 DC      0.0000
   1516 C5        -3.8083     1.9179  1384.6729 C.2      428 DC      0.0000
   1517 C6        -4.5641     0.8325  1384.4081 C.2      428 DC      0.0000
   1518 H5'       -7.9598    -1.2863  1380.9851 H        428 DC      0.0000
   1519 H5''      -6.7383    -0.0281  1381.3146 H        428 DC      0.0000
   1520 H4'       -6.3988    -2.6579  1381.7693 H        428 DC      0.0000
   1521 H3'       -8.0826    -1.9721  1383.8900 H        428 DC      0.0000
   1522 H2'       -6.5241    -0.8103  1385.1334 H        428 DC      0.0000
   1523 H2''      -6.0390    -2.4551  1385.6411 H        428 DC      0.0000
   1524 H1'       -4.2541    -2.5217  1384.1801 H        428 DC      0.0000
   1525 H5        -4.2325     2.9110  1384.6723 H        428 DC      0.0000
   1526 H6        -5.6082     0.9712  1384.1691 H        428 DC      0.0000
   1527 H41       -0.6328     2.4995  1385.4270 H        428 DC      0.0000
   1528 H42       -1.9365     3.6506  1385.2391 H        428 DC      0.0000
   1529 P         -8.0754    -4.7570  1384.6191 P.3      429 DA      0.0000
   1530 OP1       -8.3755    -6.0140  1383.8254 O.co2    429 DA      0.0000
   1531 OP2       -9.3091    -4.0219  1384.9646 O.co2    429 DA      0.0000
   1532 O5'       -7.1056    -5.0494  1385.9161 O.3      429 DA      0.0000
   1533 C5'       -5.7676    -5.5550  1385.6209 C.3      429 DA      0.0000
   1534 C4'       -4.9678    -5.6790  1386.8762 C.3      429 DA      0.0000
   1535 O4'       -4.0485    -4.6098  1387.1183 O.3      429 DA      0.0000
   1536 C3'       -5.7805    -5.7098  1388.1814 C.3      429 DA      0.0000
   1537 O3'       -4.9666    -6.2755  1389.2113 O.3      429 DA      0.0000
   1538 C2'       -5.9651    -4.1942  1388.3960 C.3      429 DA      0.0000
   1539 C1'       -4.4926    -3.8114  1388.2127 C.3      429 DA      0.0000
   1540 N9        -4.3822    -2.3656  1388.1184 N.ar     429 DA      0.0000
   1541 C8        -5.3478    -1.4043  1388.0026 C.ar     429 DA      0.0000
   1542 N7        -4.8990    -0.1621  1387.9840 N.ar     429 DA      0.0000
   1543 C5        -3.5246    -0.3209  1388.0915 C.ar     429 DA      0.0000
   1544 C6        -2.4610     0.6143  1388.1260 C.ar     429 DA      0.0000
   1545 N6        -2.6119     1.9238  1388.0408 N.pl3    429 DA      0.0000
   1546 N1        -1.2059     0.0930  1388.2586 N.ar     429 DA      0.0000
   1547 C2        -1.0033    -1.2591  1388.3388 C.ar     429 DA      0.0000
   1548 N3        -1.9475    -2.1966  1388.3090 N.ar     429 DA      0.0000
   1549 C4        -3.1867    -1.6611  1388.1859 C.ar     429 DA      0.0000
   1550 H5'       -5.8500    -6.5344  1385.1497 H        429 DA      0.0000
   1551 H5''      -5.2650    -4.8684  1384.9396 H        429 DA      0.0000
   1552 H4'       -4.3954    -6.6046  1386.8173 H        429 DA      0.0000
   1553 H3'       -6.7302    -6.2324  1388.0677 H        429 DA      0.0000
   1554 H2'       -6.6122    -3.7407  1387.6452 H        429 DA      0.0000
   1555 H2''      -6.3113    -3.9740  1389.4059 H        429 DA      0.0000
   1556 H1'       -3.9502    -4.1313  1389.1024 H        429 DA      0.0000
   1557 H8        -6.3987    -1.6429  1387.9316 H        429 DA      0.0000
   1558 H2         0.0183    -1.5960  1388.4352 H        429 DA      0.0000
   1559 H61       -2.0099     2.7146  1388.2208 H        429 DA      0.0000
   1560 H62       -3.5327     2.1940  1387.7260 H        429 DA      0.0000
   1561 P         -4.7798    -7.8585  1389.3518 P.3      430 DC      0.0000
   1562 OP1       -5.1210    -8.6030  1388.1067 O.co2    430 DC      0.0000
   1563 OP2       -5.6968    -8.1859  1390.4947 O.co2    430 DC      0.0000
   1564 O5'       -3.2278    -8.0186  1389.6350 O.3      430 DC      0.0000
   1565 C5'       -2.2544    -8.0060  1388.5472 C.3      430 DC      0.0000
   1566 C4'       -1.0133    -7.4470  1389.2522 C.3      430 DC      0.0000
   1567 O4'       -1.2786    -6.0991  1389.5642 O.3      430 DC      0.0000
   1568 C3'       -0.6780    -8.1553  1390.5621 C.3      430 DC      0.0000
   1569 O3'        0.6988    -8.5907  1390.6300 O.3      430 DC      0.0000
   1570 C2'       -1.0444    -7.1285  1391.6443 C.3      430 DC      0.0000
   1571 C1'       -0.7827    -5.8441  1390.9681 C.3      430 DC      0.0000
   1572 N1        -1.5186    -4.6328  1391.3210 N.am     430 DC      0.0000
   1573 C2        -0.7711    -3.4569  1391.2941 C.2      430 DC      0.0000
   1574 O2         0.4358    -3.4449  1391.0872 O.2      430 DC      0.0000
   1575 N3        -1.4279    -2.2931  1391.5472 N.2      430 DC      0.0000
   1576 C4        -2.7618    -2.2461  1391.7806 C.2      430 DC      0.0000
   1577 N4        -3.2916    -1.0464  1392.0115 N.pl3    430 DC      0.0000
   1578 C5        -3.5162    -3.4516  1391.7871 C.2      430 DC      0.0000
   1579 C6        -2.8614    -4.5961  1391.5377 C.2      430 DC      0.0000
   1580 H5'       -2.0750    -9.0098  1388.1624 H        430 DC      0.0000
   1581 H5''      -2.5775    -7.3386  1387.7482 H        430 DC      0.0000
   1582 H4'       -0.1574    -7.5026  1388.5795 H        430 DC      0.0000
   1583 H3'       -1.3272    -9.0245  1390.6680 H        430 DC      0.0000
   1584 H2'       -2.0923    -7.2160  1391.9313 H        430 DC      0.0000
   1585 H2''      -0.3980    -7.2420  1392.5146 H        430 DC      0.0000
   1586 H1'        0.2880    -5.6403  1390.9549 H        430 DC      0.0000
   1587 H5        -4.5778    -3.4461  1391.9856 H        430 DC      0.0000
   1588 H6        -3.4196    -5.5202  1391.5080 H        430 DC      0.0000
   1589 H41       -2.7046    -0.2246  1392.0004 H        430 DC      0.0000
   1590 H42       -4.2804    -0.9583  1392.1976 H        430 DC      0.0000
   1591 P          0.6714     8.4614  1393.5895 P.3      430 DG      0.0000
   1592 OP1        0.7220     9.9455  1393.7683 O.co2    430 DG      0.0000
   1593 OP2       -0.3041     8.0243  1392.5047 O.co2    430 DG      0.0000
   1594 O5'        2.1989     7.8843  1393.3823 O.3      430 DG      0.0000
   1595 C5'        2.8399     7.1507  1394.4781 C.3      430 DG      0.0000
   1596 C4'        3.6443     6.0183  1393.8438 C.3      430 DG      0.0000
   1597 O4'        2.8996     4.8349  1393.7480 O.3      430 DG      0.0000
   1598 C3'        4.1564     6.3180  1392.4374 C.3      430 DG      0.0000
   1599 O3'        5.4906     5.8274  1392.1705 O.3      430 DG      0.0000
   1600 C2'        3.1131     5.6347  1391.5352 C.3      430 DG      0.0000
   1601 C1'        2.7906     4.3991  1392.3590 C.3      430 DG      0.0000
   1602 N9         1.4245     3.9213  1392.0857 N.ar     430 DG      0.0000
   1603 C8         0.2826     4.6704  1391.9290 C.ar     430 DG      0.0000
   1604 N7        -0.7924     3.9606  1391.7106 N.ar     430 DG      0.0000
   1605 C5        -0.3319     2.6494  1391.7354 C.ar     430 DG      0.0000
   1606 C6        -1.0135     1.4131  1391.5789 C.2      430 DG      0.0000
   1607 O6        -2.2270     1.2568  1391.3821 O.2      430 DG      0.0000
   1608 N1        -0.2047     0.3069  1391.6658 N.am     430 DG      0.0000
   1609 C2         1.1302     0.3916  1391.8865 C.2      430 DG      0.0000
   1610 N2         1.7844    -0.7649  1391.9499 N.pl3    430 DG      0.0000
   1611 N3         1.8197     1.5281  1392.0442 N.2      430 DG      0.0000
   1612 C4         1.0254     2.6131  1391.9609 C.ar     430 DG      0.0000
   1613 H5'        3.5016     7.8134  1395.0358 H        430 DG      0.0000
   1614 H5''       2.0807     6.7391  1395.1430 H        430 DG      0.0000
   1615 H4'        4.5069     5.8217  1394.4805 H        430 DG      0.0000
   1616 H3'        4.1288     7.3943  1392.2670 H        430 DG      0.0000
   1617 H2'        2.2335     6.2625  1391.3925 H        430 DG      0.0000
   1618 H2''       3.5515     5.3579  1390.5764 H        430 DG      0.0000
   1619 H1'        3.5140     3.6100  1392.1537 H        430 DG      0.0000
   1620 H8         0.2747     5.7491  1391.9818 H        430 DG      0.0000
   1621 H1        -0.6213    -0.6071  1391.5610 H        430 DG      0.0000
   1622 H21        1.2845    -1.6349  1391.8348 H        430 DG      0.0000
   1623 H22        2.7811    -0.7729  1392.1130 H        430 DG      0.0000
   1624 P          5.7923     5.4324  1390.6470 P.3      429 DT      0.0000
   1625 OP1        7.2378     5.5830  1390.2561 O.co2    429 DT      0.0000
   1626 OP2        4.9400     6.4244  1389.9464 O.co2    429 DT      0.0000
   1627 O5'        5.3441     3.8997  1390.5161 O.3      429 DT      0.0000
   1628 C5'        6.3677     2.8885  1390.7837 C.3      429 DT      0.0000
   1629 C4'        6.0054     1.6293  1390.0267 C.3      429 DT      0.0000
   1630 O4'        4.6107     1.3836  1389.9994 O.3      429 DT      0.0000
   1631 C3'        6.4481     1.6601  1388.5719 C.3      429 DT      0.0000
   1632 O3'        6.9303     0.3921  1388.0768 O.3      429 DT      0.0000
   1633 C2'        5.1972     2.1083  1387.8491 C.3      429 DT      0.0000
   1634 C1'        4.1627     1.3121  1388.6272 C.3      429 DT      0.0000
   1635 N1         2.8817     2.0200  1388.4759 N.am     429 DT      0.0000
   1636 C2         1.7334     1.2421  1388.5827 C.2      429 DT      0.0000
   1637 O2         1.8167     0.0334  1388.7724 O.2      429 DT      0.0000
   1638 N3         0.5320     1.8831  1388.4625 N.am     429 DT      0.0000
   1639 C4         0.4498     3.2258  1388.2449 C.2      429 DT      0.0000
   1640 O4        -0.7157     3.7344  1388.1474 O.2      429 DT      0.0000
   1641 C5         1.6431     3.9958  1388.1385 C.2      429 DT      0.0000
   1642 C7         1.5643     5.4780  1387.9096 C.3      429 DT      0.0000
   1643 C6         2.8137     3.3646  1388.2603 C.2      429 DT      0.0000
   1644 H5'        7.3397     3.2516  1390.4500 H        429 DT      0.0000
   1645 H5''       6.4028     2.6764  1391.8523 H        429 DT      0.0000
   1646 H4'        6.4921     0.7848  1390.5146 H        429 DT      0.0000
   1647 H3'        7.2253     2.4141  1388.4480 H        429 DT      0.0000
   1648 H2'        5.0371     3.1826  1387.9406 H        429 DT      0.0000
   1649 H2''       5.2195     1.8037  1386.8027 H        429 DT      0.0000
   1650 H1'        4.0987     0.2820  1388.2765 H        429 DT      0.0000
   1651 H3        -0.3198     1.3456  1388.5372 H        429 DT      0.0000
   1652 H6         3.7289     3.9331  1388.1862 H        429 DT      0.0000
   1653 H71        0.5194     5.7805  1387.8409 H        429 DT      0.0000
   1654 H72        2.0394     5.9995  1388.7405 H        429 DT      0.0000
   1655 H73        2.0773     5.7301  1386.9814 H        429 DT      0.0000
   1656 P          8.3664     0.6859  1387.2985 P.3      428 DG      0.0000
   1657 OP1        9.5646     0.4922  1388.1697 O.co2    428 DG      0.0000
   1658 OP2        8.1122     2.0909  1386.8929 O.co2    428 DG      0.0000
   1659 O5'        8.3576    -0.4915  1386.2176 O.3      428 DG      0.0000
   1660 C5'        8.7131    -1.8322  1386.6411 C.3      428 DG      0.0000
   1661 C4'        7.5467    -2.7040  1386.1934 C.3      428 DG      0.0000
   1662 O4'        6.3274    -2.0419  1386.4641 O.3      428 DG      0.0000
   1663 C3'        7.5569    -3.0555  1384.7056 C.3      428 DG      0.0000
   1664 O3'        7.5270    -4.4561  1384.4971 O.3      428 DG      0.0000
   1665 C2'        6.3837    -2.2832  1384.1289 C.3      428 DG      0.0000
   1666 C1'        5.4585    -2.1471  1385.3151 C.3      428 DG      0.0000
   1667 N9         4.6213    -0.9508  1385.1915 N.ar     428 DG      0.0000
   1668 C8         5.0155     0.3476  1385.0326 C.ar     428 DG      0.0000
   1669 N7         4.0192     1.1957  1384.9546 N.ar     428 DG      0.0000
   1670 C5         2.8859     0.3996  1385.0921 C.ar     428 DG      0.0000
   1671 C6         1.5017     0.7158  1385.1016 C.2      428 DG      0.0000
   1672 O6         0.9956     1.8290  1385.0025 O.2      428 DG      0.0000
   1673 N1         0.6738    -0.3604  1385.2505 N.am     428 DG      0.0000
   1674 C2         1.1563    -1.6399  1385.3834 C.2      428 DG      0.0000
   1675 N2         0.2383    -2.5973  1385.5191 N.pl3    428 DG      0.0000
   1676 N3         2.4424    -2.0051  1385.3877 N.2      428 DG      0.0000
   1677 C4         3.2506    -0.9282  1385.2370 C.ar     428 DG      0.0000
   1678 H5'        9.6382    -2.1533  1386.1624 H        428 DG      0.0000
   1679 H5''       8.8172    -1.8697  1387.7254 H        428 DG      0.0000
   1680 H4'        7.5698    -3.6309  1386.7664 H        428 DG      0.0000
   1681 H3'        8.4744    -2.6632  1384.2671 H        428 DG      0.0000
   1682 H2'        6.6988    -1.3062  1383.7626 H        428 DG      0.0000
   1683 H2''       5.9043    -2.8537  1383.3334 H        428 DG      0.0000
   1684 H1'        4.8310    -3.0341  1385.4021 H        428 DG      0.0000
   1685 H8         6.0516     0.6473  1384.9765 H        428 DG      0.0000
   1686 H1        -0.3249    -0.2107  1385.2634 H        428 DG      0.0000
   1687 H21       -0.7432    -2.3594  1385.5200 H        428 DG      0.0000
   1688 H22        0.5245    -3.5605  1385.6209 H        428 DG      0.0000
   1689 P          6.6442    -5.4396  1383.6308 P.3      427 DA      0.0000
   1690 OP1        6.3710    -6.7311  1384.4122 O.co2    427 DA      0.0000
   1691 OP2        7.4456    -5.7231  1382.4381 O.co2    427 DA      0.0000
   1692 O5'        5.1951    -4.7158  1383.4560 O.3      427 DA      0.0000
   1693 C5'        4.3142    -4.9764  1384.6125 C.3      427 DA      0.0000
   1694 C4'        3.1260    -5.7418  1384.0847 C.3      427 DA      0.0000
   1695 O4'        2.0107    -4.9167  1383.8624 O.3      427 DA      0.0000
   1696 C3'        3.4027    -6.4213  1382.7442 C.3      427 DA      0.0000
   1697 O3'        2.8501    -7.7137  1382.6690 O.3      427 DA      0.0000
   1698 C2'        2.9141    -5.3856  1381.7476 C.3      427 DA      0.0000
   1699 C1'        1.9016    -4.5426  1382.4715 C.3      427 DA      0.0000
   1700 N9         2.1299    -3.1051  1382.2459 N.ar     427 DA      0.0000
   1701 C8         3.3201    -2.4358  1382.0596 C.ar     427 DA      0.0000
   1702 N7         3.1900    -1.1439  1381.8637 N.ar     427 DA      0.0000
   1703 C5         1.8177    -0.9458  1381.9506 C.ar     427 DA      0.0000
   1704 C6         1.0330     0.2263  1381.8449 C.ar     427 DA      0.0000
   1705 N6         1.5343     1.4303  1381.6324 N.pl3    427 DA      0.0000
   1706 N1        -0.3127     0.0590  1381.9686 N.ar     427 DA      0.0000
   1707 C2        -0.8583    -1.1728  1382.1931 C.ar     427 DA      0.0000
   1708 N3        -0.1778    -2.3113  1382.3090 N.ar     427 DA      0.0000
   1709 C4         1.1584    -2.1323  1382.1729 C.ar     427 DA      0.0000
   1710 H5'        4.8410    -5.5688  1385.3605 H        427 DA      0.0000
   1711 H5''       3.9850    -4.0335  1385.0492 H        427 DA      0.0000
   1712 H4'        2.8536    -6.5062  1384.8124 H        427 DA      0.0000
   1713 H3'        4.4831    -6.5117  1382.6311 H        427 DA      0.0000
   1714 H2'        2.4523    -5.8760  1380.8907 H        427 DA      0.0000
   1715 H2''       3.7470    -4.7651  1381.4171 H        427 DA      0.0000
   1716 H1'        0.9055    -4.8022  1382.1133 H        427 DA      0.0000
   1717 H8         4.2792    -2.9322  1382.0735 H        427 DA      0.0000
   1718 H2        -1.9329    -1.2280  1382.2844 H        427 DA      0.0000
   1719 H61        1.0524     2.2601  1381.9479 H        427 DA      0.0000
   1720 H62        2.4148     1.5225  1381.1462 H        427 DA      0.0000
   1721 P          2.1380    -8.4795  1381.4844 P.3      426 DA      0.0000
   1722 OP1        1.4686    -9.7851  1382.0043 O.co2    426 DA      0.0000
   1723 OP2        3.2496    -8.8417  1380.5507 O.co2    426 DA      0.0000
   1724 O5'        0.9530    -7.5711  1380.9817 O.3      426 DA      0.0000
   1725 C5'       -0.3922    -7.8238  1381.4375 C.3      426 DA      0.0000
   1726 C4'       -1.2906    -6.8288  1380.7356 C.3      426 DA      0.0000
   1727 O4'       -0.7451    -5.5461  1380.6149 O.3      426 DA      0.0000
   1728 C3'       -1.6975    -7.2627  1379.3281 C.3      426 DA      0.0000
   1729 O3'       -3.1141    -7.5197  1379.2966 O.3      426 DA      0.0000
   1730 C2'       -1.1384    -6.1589  1378.4285 C.3      426 DA      0.0000
   1731 C1'       -1.1246    -4.9590  1379.3263 C.3      426 DA      0.0000
   1732 N9        -0.1309    -3.9333  1379.0267 N.ar     426 DA      0.0000
   1733 C8         1.2285    -4.0649  1378.8320 C.ar     426 DA      0.0000
   1734 N7         1.8477    -2.9238  1378.6265 N.ar     426 DA      0.0000
   1735 C5         0.8448    -1.9770  1378.7011 C.ar     426 DA      0.0000
   1736 C6         0.8634    -0.5705  1378.5676 C.ar     426 DA      0.0000
   1737 N6         1.9633     0.1357  1378.3244 N.pl3    426 DA      0.0000
   1738 N1        -0.3528     0.0465  1378.7164 N.ar     426 DA      0.0000
   1739 C2        -1.4826    -0.6420  1378.9689 C.ar     426 DA      0.0000
   1740 N3        -1.5762    -1.9679  1379.1078 N.ar     426 DA      0.0000
   1741 C4        -0.3765    -2.5729  1378.9606 C.ar     426 DA      0.0000
   1742 H5'       -0.6890    -8.8410  1381.1824 H        426 DA      0.0000
   1743 H5''      -0.4513    -7.6798  1382.5164 H        426 DA      0.0000
   1744 H4'       -2.2027    -6.7408  1381.3257 H        426 DA      0.0000
   1745 H3'       -1.1768    -8.1910  1379.0931 H        426 DA      0.0000
   1746 H2'       -0.1322    -6.4041  1378.0886 H        426 DA      0.0000
   1747 H2''      -1.7979    -5.9904  1377.5772 H        426 DA      0.0000
   1748 H1'       -2.1196    -4.5181  1379.3874 H        426 DA      0.0000
   1749 H8         1.7370    -5.0175  1378.8469 H        426 DA      0.0000
   1750 H2        -2.3944    -0.0716  1379.0680 H        426 DA      0.0000
   1751 H61        1.9298     1.1015  1378.6184 H        426 DA      0.0000
   1752 H62        2.7752    -0.2652  1377.8771 H        426 DA      0.0000
   1753 P         -3.7924    -7.9821  1377.9117 P.3      425 DT      0.0000
   1754 OP1       -5.1795    -8.5440  1377.9698 O.co2    425 DT      0.0000
   1755 OP2       -2.7436    -8.9160  1377.3990 O.co2    425 DT      0.0000
   1756 O5'       -3.9273    -6.4771  1377.2085 O.3      425 DT      0.0000
   1757 C5'       -4.3650    -5.5209  1378.2209 C.3      425 DT      0.0000
   1758 C4'       -4.9985    -4.3512  1377.5379 C.3      425 DT      0.0000
   1759 O4'       -4.1302    -3.2726  1377.3575 O.3      425 DT      0.0000
   1760 C3'       -5.5953    -4.6735  1376.1766 C.3      425 DT      0.0000
   1761 O3'       -6.8078    -3.9584  1375.9094 O.3      425 DT      0.0000
   1762 C2'       -4.4058    -4.2979  1375.2833 C.3      425 DT      0.0000
   1763 C1'       -3.9371    -3.0086  1375.9233 C.3      425 DT      0.0000
   1764 N1        -2.4966    -2.7900  1375.6934 N.am     425 DT      0.0000
   1765 C2        -2.0600    -1.4826  1375.5717 C.2      425 DT      0.0000
   1766 O2        -2.8528    -0.5403  1375.6085 O.2      425 DT      0.0000
   1767 N3        -0.7190    -1.2664  1375.4043 N.am     425 DT      0.0000
   1768 C4         0.1741    -2.2909  1375.3558 C.2      425 DT      0.0000
   1769 O4         1.3934    -1.9997  1375.1703 O.2      425 DT      0.0000
   1770 C5        -0.2931    -3.6268  1375.5042 C.2      425 DT      0.0000
   1771 C7         0.6694    -4.7893  1375.4521 C.3      425 DT      0.0000
   1772 C6        -1.6048    -3.8209  1375.6772 C.2      425 DT      0.0000
   1773 H5'       -5.0898    -5.9948  1378.8829 H        425 DT      0.0000
   1774 H5''      -3.5059    -5.1840  1378.8009 H        425 DT      0.0000
   1775 H4'       -5.8134    -4.0072  1378.1749 H        425 DT      0.0000
   1776 H3'       -5.7808    -5.7452  1376.1046 H        425 DT      0.0000
   1777 H2'       -3.6291    -5.0619  1375.3139 H        425 DT      0.0000
   1778 H2''      -4.7337    -4.1225  1374.2587 H        425 DT      0.0000
   1779 H1'       -4.5298    -2.1570  1375.5894 H        425 DT      0.0000
   1780 H3        -0.3829    -0.3182  1375.3142 H        425 DT      0.0000
   1781 H6        -1.9701    -4.8287  1375.8086 H        425 DT      0.0000
   1782 H71        0.6768    -5.2108  1374.4469 H        425 DT      0.0000
   1783 H72        0.3552    -5.5530  1376.1637 H        425 DT      0.0000
   1784 H73        1.6708    -4.4437  1375.7086 H        425 DT      0.0000
   1785 P         -7.4451    -4.1786  1374.4194 P.3      424 DT      0.0000
   1786 OP1       -8.7818    -4.9078  1374.5674 O.co2    424 DT      0.0000
   1787 OP2       -6.4487    -5.0809  1373.7496 O.co2    424 DT      0.0000
   1788 O5'       -7.6078    -2.7819  1373.7674 O.3      424 DT      0.0000
   1789 C5'       -7.8471    -1.5918  1374.5188 C.3      424 DT      0.0000
   1790 C4'       -7.2582    -0.4390  1373.7708 C.3      424 DT      0.0000
   1791 O4'       -5.8621    -0.3223  1373.7138 O.3      424 DT      0.0000
   1792 C3'       -7.7003    -0.2404  1372.3048 C.3      424 DT      0.0000
   1793 O3'       -7.7005     1.1866  1372.2010 O.3      424 DT      0.0000
   1794 C2'       -6.5296    -0.8735  1371.5410 C.3      424 DT      0.0000
   1795 C1'       -5.4156    -0.2009  1372.3167 C.3      424 DT      0.0000
   1796 N1        -4.0943    -0.8262  1372.2106 N.am     424 DT      0.0000
   1797 C2        -3.0087     0.0600  1372.2099 C.2      424 DT      0.0000
   1798 O2        -3.1830     1.2797  1372.2530 O.2      424 DT      0.0000
   1799 N3        -1.7595    -0.4883  1372.1565 N.am     424 DT      0.0000
   1800 C4        -1.5460    -1.8334  1372.0968 C.2      424 DT      0.0000
   1801 O4        -0.3481    -2.2440  1372.0344 O.2      424 DT      0.0000
   1802 C5        -2.6652    -2.7098  1372.1050 C.2      424 DT      0.0000
   1803 C7        -2.4426    -4.2065  1372.0436 C.3      424 DT      0.0000
   1804 C6        -3.8853    -2.1690  1372.1715 C.2      424 DT      0.0000
   1805 H5'       -8.9198    -1.4424  1374.6410 H        424 DT      0.0000
   1806 H5''      -7.3742    -1.6744  1375.4974 H        424 DT      0.0000
   1807 H4'       -7.6004     0.4516  1374.2981 H        424 DT      0.0000
   1808 H3'       -8.6649    -0.6936  1372.0761 H        424 DT      0.0000
   1809 H2'       -6.5252    -0.6017  1370.4854 H        424 DT      0.0000
   1810 H2''      -6.5082    -1.9553  1371.6726 H        424 DT      0.0000
   1811 H1'       -5.3518     0.8509  1372.0377 H        424 DT      0.0000
   1812 H3        -0.9599     0.1286  1372.1614 H        424 DT      0.0000
   1813 H6        -4.7418    -2.8265  1372.1952 H        424 DT      0.0000
   1814 H71       -1.3736    -4.4137  1371.9948 H        424 DT      0.0000
   1815 H72       -2.9315    -4.6102  1371.1570 H        424 DT      0.0000
   1816 H73       -2.8627    -4.6732  1372.9345 H        424 DT      0.0000
   1817 P         -8.3121     2.0366  1371.0548 P.3      423 DC      0.0000
   1818 OP1       -9.1712     3.1462  1371.6639 O.co2    423 DC      0.0000
   1819 OP2       -9.1798     1.1010  1370.2729 O.co2    423 DC      0.0000
   1820 O5'       -6.9665     2.5813  1370.3154 O.3      423 DC      0.0000
   1821 C5'       -6.2459     3.6316  1371.0399 C.3      423 DC      0.0000
   1822 C4'       -5.6535     4.5347  1369.9894 C.3      423 DC      0.0000
   1823 O4'       -4.2961     4.2492  1369.7441 O.3      423 DC      0.0000
   1824 C3'       -6.3433     4.4882  1368.6249 C.3      423 DC      0.0000
   1825 O3'       -6.3461     5.7290  1367.9157 O.3      423 DC      0.0000
   1826 C2'       -5.5423     3.3731  1367.9388 C.3      423 DC      0.0000
   1827 C1'       -4.1335     3.5959  1368.4854 C.3      423 DC      0.0000
   1828 N1        -3.4751     2.2736  1368.6032 N.am     423 DC      0.0000
   1829 C2        -2.0812     2.2592  1368.6204 C.2      423 DC      0.0000
   1830 O2        -1.4289     3.3100  1368.5518 O.2      423 DC      0.0000
   1831 N3        -1.4687     1.0395  1368.7237 N.2      423 DC      0.0000
   1832 C4        -2.1742    -0.1195  1368.7944 C.2      423 DC      0.0000
   1833 N4        -1.5310    -1.2847  1368.8964 N.pl3    423 DC      0.0000
   1834 C5        -3.5962    -0.0766  1368.7693 C.2      423 DC      0.0000
   1835 C6        -4.1971     1.1220  1368.6757 C.2      423 DC      0.0000
   1836 H5'       -6.9320     4.1909  1371.6758 H        423 DC      0.0000
   1837 H5''      -5.4524     3.1913  1371.6438 H        423 DC      0.0000
   1838 H4'       -5.7161     5.5585  1370.3581 H        423 DC      0.0000
   1839 H3'       -7.3722     4.1544  1368.7591 H        423 DC      0.0000
   1840 H2'       -5.5659     3.4810  1366.8544 H        423 DC      0.0000
   1841 H2''      -5.9178     2.3935  1368.2348 H        423 DC      0.0000
   1842 H1'       -3.5678     4.2336  1367.8060 H        423 DC      0.0000
   1843 H5        -4.1783    -0.9846  1368.8241 H        423 DC      0.0000
   1844 H6        -5.2758     1.1725  1368.6576 H        423 DC      0.0000
   1845 H41       -0.5214    -1.3041  1368.9170 H        423 DC      0.0000
   1846 H42       -2.0539    -2.1469  1368.9527 H        423 DC      0.0000
   1847 P         -6.1961     5.9084  1366.2836 P.3      422 DA      0.0000
   1848 OP1       -6.8042     7.2384  1365.8942 O.co2    422 DA      0.0000
   1849 OP2       -6.8820     4.7171  1365.7136 O.co2    422 DA      0.0000
   1850 O5'       -4.6121     6.0181  1366.1181 O.3      422 DA      0.0000
   1851 C5'       -3.9523     7.2590  1366.5835 C.3      422 DA      0.0000
   1852 C4'       -2.7126     7.2986  1365.7063 C.3      422 DA      0.0000
   1853 O4'       -1.8935     6.1531  1365.9736 O.3      422 DA      0.0000
   1854 C3'       -3.0250     7.2095  1364.2019 C.3      422 DA      0.0000
   1855 O3'       -1.9200     7.6207  1363.4128 O.3      422 DA      0.0000
   1856 C2'       -3.1120     5.6837  1364.0144 C.3      422 DA      0.0000
   1857 C1'       -1.7883     5.3823  1364.7690 C.3      422 DA      0.0000
   1858 N9        -1.7733     3.9303  1364.9145 N.ar     422 DA      0.0000
   1859 C8        -2.8720     3.1036  1364.9873 C.ar     422 DA      0.0000
   1860 N7        -2.5622     1.8365  1365.1020 N.ar     422 DA      0.0000
   1861 C5        -1.1559     1.8393  1365.0956 C.ar     422 DA      0.0000
   1862 C6        -0.2213     0.7722  1365.1955 C.ar     422 DA      0.0000
   1863 N6        -0.5698    -0.5118  1365.3184 N.pl3    422 DA      0.0000
   1864 N1         1.0837     1.1618  1365.1604 N.ar     422 DA      0.0000
   1865 C2         1.4379     2.4648  1365.0415 C.ar     422 DA      0.0000
   1866 N3         0.6157     3.5141  1364.9500 N.ar     422 DA      0.0000
   1867 C4        -0.6687     3.1176  1364.9776 C.ar     422 DA      0.0000
   1868 H5'       -4.5844     8.1312  1366.4168 H        422 DA      0.0000
   1869 H5''      -3.6774     7.1779  1367.6352 H        422 DA      0.0000
   1870 H4'       -2.1481     8.2085  1365.9102 H        422 DA      0.0000
   1871 H3'       -3.9491     7.7207  1363.9322 H        422 DA      0.0000
   1872 H2'       -3.9857     5.2448  1364.4960 H        422 DA      0.0000
   1873 H2''      -3.0487     5.4031  1362.9630 H        422 DA      0.0000
   1874 H1'       -0.9325     5.7133  1364.1806 H        422 DA      0.0000
   1875 H8        -3.8893     3.4647  1364.9533 H        422 DA      0.0000
   1876 H2         2.4965     2.6773  1365.0183 H        422 DA      0.0000
   1877 H61       -1.5459    -0.7700  1365.3431 H        422 DA      0.0000
   1878 H62        0.1429    -1.2242  1365.3865 H        422 DA      0.0000
   1879 P         -2.0981     8.7108  1362.2719 P.3      421 DC      0.0000
   1880 OP1       -2.0003    10.0112  1363.0522 O.co2    421 DC      0.0000
   1881 OP2       -3.3654     8.5688  1361.5463 O.co2    421 DC      0.0000
   1882 O5'       -0.8280     8.3379  1361.2960 O.3      421 DC      0.0000
   1883 C5'        0.4879     8.2525  1361.9650 C.3      421 DC      0.0000
   1884 C4'        1.2806     7.1459  1361.3210 C.3      421 DC      0.0000
   1885 O4'        1.1255     5.8837  1361.9582 O.3      421 DC      0.0000
   1886 C3'        0.9132     6.9283  1359.8432 C.3      421 DC      0.0000
   1887 O3'        2.0049     6.5130  1359.0319 O.3      421 DC      0.0000
   1888 C2'       -0.0832     5.7343  1360.0088 C.3      421 DC      0.0000
   1889 C1'        0.9210     4.9193  1360.9044 C.3      421 DC      0.0000
   1890 N1         0.3227     3.6317  1361.1423 N.am     421 DC      0.0000
   1891 C2         1.1507     2.5671  1361.4595 C.2      421 DC      0.0000
   1892 O2         2.3784     2.5361  1361.5999 O.2      421 DC      0.0000
   1893 N3         0.5744     1.3431  1361.6577 N.2      421 DC      0.0000
   1894 C4        -0.7748     1.1502  1361.5417 C.2      421 DC      0.0000
   1895 N4        -1.2965    -0.0674  1361.7578 N.pl3    421 DC      0.0000
   1896 C5        -1.6115     2.2521  1361.2121 C.2      421 DC      0.0000
   1897 C6        -1.0244     3.4391  1361.0204 C.2      421 DC      0.0000
   1898 H5'        1.0190     9.1979  1361.8536 H        421 DC      0.0000
   1899 H5''       0.3472     8.0341  1363.0236 H        421 DC      0.0000
   1900 H4'        2.3351     7.4177  1361.3677 H        421 DC      0.0000
   1901 H3'        0.4175     7.8039  1359.4242 H        421 DC      0.0000
   1902 H2'       -1.0035     6.0059  1360.5259 H        421 DC      0.0000
   1903 H2''      -0.2811     5.2345  1359.0606 H        421 DC      0.0000
   1904 H1'        1.8552     4.7831  1360.3595 H        421 DC      0.0000
   1905 H5        -2.6812     2.1350  1361.1199 H        421 DC      0.0000
   1906 H6        -1.6439     4.2837  1360.7571 H        421 DC      0.0000
   1907 H41       -0.6924    -0.8403  1361.9983 H        421 DC      0.0000
   1908 H42       -2.2933    -0.2108  1361.6798 H        421 DC      0.0000
   1909 P          2.7976    -9.6205  1395.6311 P.3      431 DG      0.0000
   1910 OP1        2.4846   -11.0709  1395.6295 O.co2    431 DG      0.0000
   1911 OP2        1.8900    -8.9725  1396.6867 O.co2    431 DG      0.0000
   1912 O5'        4.3259    -9.2152  1395.8094 O.3      431 DG      0.0000
   1913 C5'        5.2751    -8.7882  1394.8094 C.3      431 DG      0.0000
   1914 C4'        5.9502    -7.5276  1395.3083 C.3      431 DG      0.0000
   1915 O4'        5.2740    -6.3620  1394.8891 O.3      431 DG      0.0000
   1916 C3'        6.1726    -7.3857  1396.8005 C.3      431 DG      0.0000
   1917 O3'        7.5664    -7.1183  1397.1124 O.3      431 DG      0.0000
   1918 C2'        5.2379    -6.2680  1397.2223 C.3      431 DG      0.0000
   1919 C1'        5.0806    -5.4450  1395.9667 C.3      431 DG      0.0000
   1920 N9         3.7470    -4.8174  1395.9376 N.ar     431 DG      0.0000
   1921 C8         2.5134    -5.3797  1396.1665 C.ar     431 DG      0.0000
   1922 N7         1.5127    -4.5330  1396.0768 N.ar     431 DG      0.0000
   1923 C5         2.1285    -3.3250  1395.7598 C.ar     431 DG      0.0000
   1924 C6         1.6034    -2.0287  1395.5339 C.2      431 DG      0.0000
   1925 O6         0.4260    -1.6687  1395.5552 O.2      431 DG      0.0000
   1926 N1         2.5326    -1.0649  1395.2524 N.am     431 DG      0.0000
   1927 C2         3.8033    -1.3054  1395.1917 C.2      431 DG      0.0000
   1928 N2         4.4447    -0.2426  1394.8949 N.pl3    431 DG      0.0000
   1929 N3         4.4157    -2.5453  1395.4005 N.2      431 DG      0.0000
   1930 C4         3.4988    -3.4847  1395.6730 C.ar     431 DG      0.0000
   1931 H5'        6.0201    -9.5679  1394.6507 H        431 DG      0.0000
   1932 H5''       4.7552    -8.5810  1393.8741 H        431 DG      0.0000
   1933 H4'        6.9357    -7.4987  1394.8435 H        431 DG      0.0000
   1934 H3'        5.8687    -8.3086  1397.2944 H        431 DG      0.0000
   1935 H2'        4.2775    -6.6664  1397.5493 H        431 DG      0.0000
   1936 H2''       5.6914    -5.6714  1398.0138 H        431 DG      0.0000
   1937 H1'        5.8500    -4.6735  1395.9347 H        431 DG      0.0000
   1938 H8         2.3787    -6.4257  1396.3996 H        431 DG      0.0000
   1939 H1         2.2124    -0.1219  1395.0840 H        431 DG      0.0000
   1940 H21        3.9467     0.6241  1394.7506 H        431 DG      0.0000
   1941 H22        5.4503    -0.2683  1394.8045 H        431 DG      0.0000
   1942 P          8.0451    -6.6465  1398.5410 P.3      432 DT      0.0000
   1943 OP1        9.3237    -7.2578  1399.0527 O.co2    432 DT      0.0000
   1944 OP2        6.9465    -7.2114  1399.4597 O.co2    432 DT      0.0000
   1945 O5'        7.9850    -5.0978  1398.5696 O.3      432 DT      0.0000
   1946 C5'        9.1607    -4.2543  1398.4256 C.3      432 DT      0.0000
   1947 C4'        8.6246    -2.8392  1398.4831 C.3      432 DT      0.0000
   1948 O4'        7.2422    -2.7813  1398.2079 O.3      432 DT      0.0000
   1949 C3'        8.7836    -2.1147  1399.7958 C.3      432 DT      0.0000
   1950 O3'        9.6755    -1.0062  1399.6076 O.3      432 DT      0.0000
   1951 C2'        7.3820    -1.6478  1400.1880 C.3      432 DT      0.0000
   1952 C1'        6.7230    -1.5726  1398.8353 C.3      432 DT      0.0000
   1953 N1         5.2706    -1.7200  1398.9319 N.am     432 DT      0.0000
   1954 C2         4.5089    -0.6004  1398.7340 C.2      432 DT      0.0000
   1955 O2         5.0021     0.4996  1398.4958 O.2      432 DT      0.0000
   1956 N3         3.1504    -0.7483  1398.8151 N.am     432 DT      0.0000
   1957 C4         2.5542    -1.9347  1399.0710 C.2      432 DT      0.0000
   1958 O4         1.2963    -1.9147  1399.1162 O.2      432 DT      0.0000
   1959 C5         3.3675    -3.0961  1399.2707 C.2      432 DT      0.0000
   1960 C7         2.7480    -4.4267  1399.5506 C.3      432 DT      0.0000
   1961 C6         4.6953    -2.9422  1399.1892 C.2      432 DT      0.0000
   1962 H5'        9.8640    -4.4326  1399.2390 H        432 DT      0.0000
   1963 H5''       9.6411    -4.4373  1397.4644 H        432 DT      0.0000
   1964 H4'        9.1398    -2.2577  1397.7185 H        432 DT      0.0000
   1965 H3'        9.1798    -2.7914  1400.5529 H        432 DT      0.0000
   1966 H2'        6.8855    -2.3694  1400.8369 H        432 DT      0.0000
   1967 H2''       7.4178    -0.6646  1400.6573 H        432 DT      0.0000
   1968 H1'        7.0083    -0.6730  1398.2900 H        432 DT      0.0000
   1969 H3         2.5675     0.0650  1398.6776 H        432 DT      0.0000
   1970 H6         5.3327    -3.8028  1399.3295 H        432 DT      0.0000
   1971 H71        2.7639    -5.0332  1398.6450 H        432 DT      0.0000
   1972 H72        1.7171    -4.2861  1399.8753 H        432 DT      0.0000
   1973 H73        3.3107    -4.9315  1400.3359 H        432 DT      0.0000
   1974 P         10.6447    -0.7446  1400.8876 P.3      433 DG      0.0000
   1975 OP1       11.9209    -0.3193  1400.1725 O.co2    433 DG      0.0000
   1976 OP2       10.7726    -1.9791  1401.6411 O.co2    433 DG      0.0000
   1977 O5'        9.7784     0.4973  1401.4971 O.3      433 DG      0.0000
   1978 C5'        9.4268     1.4302  1400.4065 C.3      433 DG      0.0000
   1979 C4'        8.3705     2.3601  1400.9265 C.3      433 DG      0.0000
   1980 O4'        7.0386     1.9591  1400.7459 O.3      433 DG      0.0000
   1981 C3'        8.5419     2.6666  1402.4345 C.3      433 DG      0.0000
   1982 O3'        8.5910     4.1052  1402.5934 O.3      433 DG      0.0000
   1983 C2'        7.3749     1.9567  1403.0871 C.3      433 DG      0.0000
   1984 C1'        6.3057     2.0580  1402.0056 C.3      433 DG      0.0000
   1985 N9         5.2752     1.0275  1402.1751 N.ar     433 DG      0.0000
   1986 C8         5.4290    -0.2892  1402.5113 C.ar     433 DG      0.0000
   1987 N7         4.3061    -0.9678  1402.5971 N.ar     433 DG      0.0000
   1988 C5         3.3419    -0.0182  1402.2670 C.ar     433 DG      0.0000
   1989 C6         1.9247    -0.1237  1402.1727 C.2      433 DG      0.0000
   1990 O6         1.2164    -1.1232  1402.3650 O.2      433 DG      0.0000
   1991 N1         1.2882     1.0495  1401.8377 N.am     433 DG      0.0000
   1992 C2         1.9752     2.2035  1401.6139 C.2      433 DG      0.0000
   1993 N2         1.1924     3.2457  1401.3051 N.pl3    433 DG      0.0000
   1994 N3         3.2961     2.3517  1401.6849 N.2      433 DG      0.0000
   1995 C4         3.9199     1.2068  1402.0115 C.ar     433 DG      0.0000
   1996 H5'       10.3069     1.9987  1400.1060 H        433 DG      0.0000
   1997 H5''       9.0395     0.8720  1399.5541 H        433 DG      0.0000
   1998 H4'        8.4913     3.3046  1400.3959 H        433 DG      0.0000
   1999 H3'        9.4758     2.2306  1402.7893 H        433 DG      0.0000
   2000 H2'        7.6168     0.9176  1403.3101 H        433 DG      0.0000
   2001 H2''       7.0608     2.4812  1403.9895 H        433 DG      0.0000
   2002 H1'        5.8360     3.0398  1402.0645 H        433 DG      0.0000
   2003 H8         6.3956    -0.7359  1402.6919 H        433 DG      0.0000
   2004 H1         0.2815     1.0547  1401.7553 H        433 DG      0.0000
   2005 H21        0.1906     3.1275  1401.2548 H        433 DG      0.0000
   2006 H22        1.6040     4.1498  1401.1224 H        433 DG      0.0000
   2007 P          8.8728     4.7659  1403.9818 P.3      434 DA      0.0000
   2008 OP1       10.3046     5.0047  1404.3372 O.co2    434 DA      0.0000
   2009 OP2        8.3531     3.5821  1404.8776 O.co2    434 DA      0.0000
   2010 O5'        7.8188     5.9243  1404.2309 O.3      434 DA      0.0000
   2011 C5'        7.1002     6.6202  1403.2019 C.3      434 DA      0.0000
   2012 C4'        5.6564     6.6573  1403.6762 C.3      434 DA      0.0000
   2013 O4'        5.0761     5.3737  1403.5858 O.3      434 DA      0.0000
   2014 C3'        5.4262     7.1491  1405.1053 C.3      434 DA      0.0000
   2015 O3'        4.3608     8.1203  1405.1576 O.3      434 DA      0.0000
   2016 C2'        5.0865     5.8470  1405.8407 C.3      434 DA      0.0000
   2017 C1'        4.2526     5.1707  1404.7631 C.3      434 DA      0.0000
   2018 N9         4.0412     3.7377  1404.9915 N.ar     434 DA      0.0000
   2019 C8         4.9486     2.7397  1405.2073 C.ar     434 DA      0.0000
   2020 N7         4.4069     1.5535  1405.3723 N.ar     434 DA      0.0000
   2021 C5         3.0469     1.7866  1405.2321 C.ar     434 DA      0.0000
   2022 C6         1.9381     0.9137  1405.2800 C.ar     434 DA      0.0000
   2023 N6         2.0209    -0.4006  1405.4998 N.pl3    434 DA      0.0000
   2024 N1         0.7217     1.5062  1405.0902 N.ar     434 DA      0.0000
   2025 C2         0.6151     2.8373  1404.8725 C.ar     434 DA      0.0000
   2026 N3         1.6127     3.7188  1404.8142 N.ar     434 DA      0.0000
   2027 C4         2.8021     3.1183  1405.0011 C.ar     434 DA      0.0000
   2028 H5'        7.1771     6.0863  1402.2547 H        434 DA      0.0000
   2029 H5''       7.4862     7.6339  1403.0941 H        434 DA      0.0000
   2030 H4'        5.1051     7.3173  1403.0064 H        434 DA      0.0000
   2031 H3'        6.3444     7.5779  1405.5067 H        434 DA      0.0000
   2032 H2'        5.9795     5.2722  1406.0862 H        434 DA      0.0000
   2033 H2''       4.4902     6.0442  1406.7316 H        434 DA      0.0000
   2034 H1'        3.2962     5.6808  1404.6486 H        434 DA      0.0000
   2035 H8         6.0147     2.9099  1405.2394 H        434 DA      0.0000
   2036 H2        -0.3827     3.2260  1404.7311 H        434 DA      0.0000
   2037 H61        2.8616    -0.9519  1405.4024 H        434 DA      0.0000
   2038 H62        1.2029    -0.9676  1405.3283 H        434 DA      0.0000
   2039 P         -7.6359    -3.8187  1407.6045 P.3      434 DT      0.0000
   2040 OP1       -9.0059    -4.4832  1407.7525 O.co2    434 DT      0.0000
   2041 OP2       -6.6837    -4.7674  1406.9347 O.co2    434 DT      0.0000
   2042 O5'       -7.7319    -2.4157  1406.9524 O.3      434 DT      0.0000
   2043 C5'       -7.9141    -1.2156  1407.7038 C.3      434 DT      0.0000
   2044 C4'       -7.2708    -0.0922  1406.9559 C.3      434 DT      0.0000
   2045 O4'       -5.8708    -0.0422  1406.8989 O.3      434 DT      0.0000
   2046 C3'       -7.7030     0.1272  1405.4898 C.3      434 DT      0.0000
   2047 O3'       -7.6352     1.5526  1405.3860 O.3      434 DT      0.0000
   2048 C2'       -6.5639    -0.5610  1404.7260 C.3      434 DT      0.0000
   2049 C1'       -5.4190     0.0577  1405.5018 C.3      434 DT      0.0000
   2050 N1        -4.1290    -0.6299  1405.3956 N.am     434 DT      0.0000
   2051 C2        -3.0024     0.2035  1405.3950 C.2      434 DT      0.0000
   2052 O2        -3.1183     1.4301  1405.4380 O.2      434 DT      0.0000
   2053 N3        -1.7808    -0.4038  1405.3415 N.am     434 DT      0.0000
   2054 C4        -1.6317    -1.7576  1405.2818 C.2      434 DT      0.0000
   2055 O4        -0.4548    -2.2248  1405.2194 O.2      434 DT      0.0000
   2056 C5        -2.7915    -2.5796  1405.2900 C.2      434 DT      0.0000
   2057 C7        -2.6405    -4.0852  1405.2286 C.3      434 DT      0.0000
   2058 C6        -3.9844    -1.9812  1405.3565 C.2      434 DT      0.0000
   2059 H5'       -8.9785    -1.0152  1407.8260 H        434 DT      0.0000
   2060 H5''      -7.4457    -1.3207  1408.6824 H        434 DT      0.0000
   2061 H4'       -7.5702     0.8137  1407.4831 H        434 DT      0.0000
   2062 H3'       -8.6881    -0.2794  1405.2611 H        434 DT      0.0000
   2063 H2'       -6.5465    -0.2897  1403.6705 H        434 DT      0.0000
   2064 H2''      -6.5941    -1.6426  1404.8576 H        434 DT      0.0000
   2065 H1'       -5.3051     1.1053  1405.2227 H        434 DT      0.0000
   2066 H3        -0.9527     0.1743  1405.3464 H        434 DT      0.0000
   2067 H6        -4.8712    -2.5971  1405.3802 H        434 DT      0.0000
   2068 H71       -1.5826    -4.3431  1405.1798 H        434 DT      0.0000
   2069 H72       -3.1481    -4.4651  1404.3420 H        434 DT      0.0000
   2070 H73       -3.0824    -4.5313  1406.1195 H        434 DT      0.0000
   2071 P         -8.2055     2.4309  1404.2398 P.3      433 DC      0.0000
   2072 OP1       -9.0107     3.5802  1404.8489 O.co2    433 DC      0.0000
   2073 OP2       -9.1168     1.5377  1403.4580 O.co2    433 DC      0.0000
   2074 O5'       -6.8354     2.9108  1403.5004 O.3      433 DC      0.0000
   2075 C5'       -6.0655     3.9255  1404.2249 C.3      433 DC      0.0000
   2076 C4'       -5.4307     4.7993  1403.1744 C.3      433 DC      0.0000
   2077 O4'       -4.0885     4.4494  1402.9291 O.3      433 DC      0.0000
   2078 C3'       -6.1220     4.7857  1401.8100 C.3      433 DC      0.0000
   2079 O3'       -6.0655     6.0253  1401.1007 O.3      433 DC      0.0000
   2080 C2'       -5.3751     3.6336  1401.1238 C.3      433 DC      0.0000
   2081 C1'       -3.9572     3.7890  1401.6704 C.3      433 DC      0.0000
   2082 N1        -3.3627     2.4368  1401.7882 N.am     433 DC      0.0000
   2083 C2        -1.9710     2.3559  1401.8055 C.2      433 DC      0.0000
   2084 O2        -1.2694     3.3744  1401.7368 O.2      433 DC      0.0000
   2085 N3        -1.4174     1.1084  1401.9087 N.2      433 DC      0.0000
   2086 C4        -2.1775    -0.0156  1401.9795 C.2      433 DC      0.0000
   2087 N4        -1.5906    -1.2101  1402.0814 N.pl3    433 DC      0.0000
   2088 C5        -3.5958     0.0951  1401.9543 C.2      433 DC      0.0000
   2089 C6        -4.1388     1.3210  1401.8607 C.2      433 DC      0.0000
   2090 H5'       -6.7242     4.5169  1404.8609 H        433 DC      0.0000
   2091 H5''      -5.2939     3.4478  1404.8288 H        433 DC      0.0000
   2092 H4'       -5.4444     5.8249  1403.5432 H        433 DC      0.0000
   2093 H3'       -7.1656     4.5014  1401.9441 H        433 DC      0.0000
   2094 H2'       -5.3935     3.7425  1400.0395 H        433 DC      0.0000
   2095 H2''      -5.7968     2.6731  1401.4198 H        433 DC      0.0000
   2096 H1'       -3.3618     4.3990  1400.9910 H        433 DC      0.0000
   2097 H5        -4.2205    -0.7842  1402.0091 H        433 DC      0.0000
   2098 H6        -5.2139     1.4228  1401.8426 H        433 DC      0.0000
   2099 H41       -0.5830    -1.2777  1402.1021 H        433 DC      0.0000
   2100 H42       -2.1540    -2.0465  1402.1378 H        433 DC      0.0000
   2101 P         -5.9071     6.1973  1399.4687 P.3      432 DA      0.0000
   2102 OP1       -6.4511     7.5548  1399.0792 O.co2    432 DA      0.0000
   2103 OP2       -6.6491     5.0400  1398.8986 O.co2    432 DA      0.0000
   2104 O5'       -4.3197     6.2313  1399.3032 O.3      432 DA      0.0000
   2105 C5'       -3.6014     7.4393  1399.7686 C.3      432 DA      0.0000
   2106 C4'       -2.3613     7.4197  1398.8913 C.3      432 DA      0.0000
   2107 O4'       -1.5978     6.2365  1399.1586 O.3      432 DA      0.0000
   2108 C3'       -2.6776     7.3456  1397.3869 C.3      432 DA      0.0000
   2109 O3'       -1.5543     7.7037  1396.5978 O.3      432 DA      0.0000
   2110 C2'       -2.8372     5.8257  1397.1994 C.3      432 DA      0.0000
   2111 C1'       -1.5294     5.4615  1397.9541 C.3      432 DA      0.0000
   2112 N9        -1.5838     4.0105  1398.0995 N.ar     432 DA      0.0000
   2113 C8        -2.7207     3.2371  1398.1724 C.ar     432 DA      0.0000
   2114 N7        -2.4717     1.9567  1398.2870 N.ar     432 DA      0.0000
   2115 C5        -1.0668     1.8924  1398.2806 C.ar     432 DA      0.0000
   2116 C6        -0.1842     0.7819  1398.3806 C.ar     432 DA      0.0000
   2117 N6        -0.5936    -0.4840  1398.5034 N.pl3    432 DA      0.0000
   2118 N1         1.1379     1.1088  1398.3454 N.ar     432 DA      0.0000
   2119 C2         1.5538     2.3934  1398.2265 C.ar     432 DA      0.0000
   2120 N3         0.7827     3.4807  1398.1351 N.ar     432 DA      0.0000
   2121 C4        -0.5192     3.1459  1398.1626 C.ar     432 DA      0.0000
   2122 H5'       -4.1912     8.3406  1399.6018 H        432 DA      0.0000
   2123 H5''      -3.3308     7.3452  1400.8202 H        432 DA      0.0000
   2124 H4'       -1.7541     8.3016  1399.0953 H        432 DA      0.0000
   2125 H3'       -3.5763     7.9004  1397.1173 H        432 DA      0.0000
   2126 H2'       -3.7310     5.4290  1397.6811 H        432 DA      0.0000
   2127 H2''      -2.7874     5.5424  1396.1481 H        432 DA      0.0000
   2128 H1'       -0.6589     5.7513  1397.3657 H        432 DA      0.0000
   2129 H8        -3.7196     3.6464  1398.1383 H        432 DA      0.0000
   2130 H2         2.6214     2.5552  1398.2033 H        432 DA      0.0000
   2131 H61       -1.5809    -0.6954  1398.5282 H        432 DA      0.0000
   2132 H62        0.0843    -1.2296  1398.5715 H        432 DA      0.0000
   2133 P         -1.6801     8.8009  1395.4569 P.3      431 DC      0.0000
   2134 OP1       -1.5203    10.0952  1396.2372 O.co2    431 DC      0.0000
   2135 OP2       -2.9528     8.7196  1394.7313 O.co2    431 DC      0.0000
   2136 O5'       -0.4293     8.3679  1394.4810 O.3      431 DC      0.0000
   2137 C5'        0.8811     8.2198  1395.1501 C.3      431 DC      0.0000
   2138 C4'        1.6200     7.0766  1394.5060 C.3      431 DC      0.0000
   2139 O4'        1.4049     5.8233  1395.1432 O.3      431 DC      0.0000
   2140 C3'        1.2427     6.8768  1393.0282 C.3      431 DC      0.0000
   2141 O3'        2.3133     6.4100  1392.2169 O.3      431 DC      0.0000
   2142 C2'        0.1905     5.7318  1393.1939 C.3      431 DC      0.0000
   2143 C1'        1.1546     4.8697  1394.0895 C.3      431 DC      0.0000
   2144 N1         0.4956     3.6122  1394.3273 N.am     431 DC      0.0000
   2145 C2         1.2718     2.5093  1394.6445 C.2      431 DC      0.0000
   2146 O2         2.4967     2.4197  1394.7850 O.2      431 DC      0.0000
   2147 N3         0.6378     1.3142  1394.8427 N.2      431 DC      0.0000
   2148 C4        -0.7190     1.1859  1394.7267 C.2      431 DC      0.0000
   2149 N4        -1.2983    -0.0055  1394.9428 N.pl3    431 DC      0.0000
   2150 C5        -1.5022     2.3264  1394.3971 C.2      431 DC      0.0000
   2151 C6        -0.8591     3.4841  1394.2054 C.2      431 DC      0.0000
   2152 H5'        1.4566     9.1388  1395.0386 H        431 DC      0.0000
   2153 H5''       0.7301     8.0084  1396.2087 H        431 DC      0.0000
   2154 H4'        2.6863     7.2978  1394.5528 H        431 DC      0.0000
   2155 H3'        0.7894     7.7751  1392.6092 H        431 DC      0.0000
   2156 H2'       -0.7158     6.0470  1393.7110 H        431 DC      0.0000
   2157 H2''      -0.0311     5.2420  1392.2456 H        431 DC      0.0000
   2158 H1'        2.0813     4.6892  1393.5445 H        431 DC      0.0000
   2159 H5        -2.5763     2.2605  1394.3050 H        431 DC      0.0000
   2160 H6        -1.4376     4.3573  1393.9421 H        431 DC      0.0000
   2161 H41       -0.7317    -0.8063  1395.1833 H        431 DC      0.0000
   2162 H42       -2.3007    -0.1012  1394.8649 H        431 DC      0.0000
@<TRIPOS>BOND
     1      9     34 1
     2     42     66 1
     3     74     99 1
     4    107    131 1
     5    139    163 1
     6    171    195 1
     7    203    227 1
     8    235    257 1
     9    265    289 1
    10    327    352 1
    11    360    384 1
    12    392    417 1
    13    425    449 1
    14    457    481 1
    15    489    513 1
    16    521    545 1
    17    553    575 1
    18    583    607 1
    19      1      2 1
    20      1      3 1
    21      1      4 1
    22      4      5 1
    23      5      6 1
    24      6      7 1
    25      6      8 1
    26      7     11 1
    27      8      9 1
    28      8     10 1
    29     10     11 1
    30     11     12 1
    31     12     13 ar
    32     12     22 ar
    33     13     14 ar
    34     14     15 ar
    35     15     16 1
    36     15     22 ar
    37     16     17 2
    38     16     18 am
    39     18     19 1
    40     19     20 2
    41     19     21 2
    42     21     22 1
    43     34     35 1
    44     34     36 1
    45     34     37 1
    46     37     38 1
    47     38     39 1
    48     39     40 1
    49     39     41 1
    50     40     44 1
    51     41     42 1
    52     41     43 1
    53     43     44 1
    54     44     45 1
    55     45     46 am
    56     45     53 1
    57     46     47 2
    58     46     48 am
    59     48     49 am
    60     49     50 2
    61     49     51 1
    62     51     52 1
    63     51     53 2
    64     66     67 1
    65     66     68 1
    66     66     69 1
    67     69     70 1
    68     70     71 1
    69     71     72 1
    70     71     73 1
    71     72     76 1
    72     73     74 1
    73     73     75 1
    74     75     76 1
    75     76     77 1
    76     77     78 ar
    77     77     87 ar
    78     78     79 ar
    79     79     80 ar
    80     80     81 1
    81     80     87 ar
    82     81     82 2
    83     81     83 am
    84     83     84 1
    85     84     85 2
    86     84     86 2
    87     86     87 1
    88     99    100 1
    89     99    101 1
    90     99    102 1
    91    102    103 1
    92    103    104 1
    93    104    105 1
    94    104    106 1
    95    105    109 1
    96    106    107 1
    97    106    108 1
    98    108    109 1
    99    109    110 1
   100    110    111 ar
   101    110    119 ar
   102    111    112 ar
   103    112    113 ar
   104    113    114 ar
   105    113    119 ar
   106    114    115 1
   107    114    116 ar
   108    116    117 ar
   109    117    118 ar
   110    118    119 ar
   111    131    132 1
   112    131    133 1
   113    131    134 1
   114    134    135 1
   115    135    136 1
   116    136    137 1
   117    136    138 1
   118    137    141 1
   119    138    139 1
   120    138    140 1
   121    140    141 1
   122    141    142 1
   123    142    143 ar
   124    142    151 ar
   125    143    144 ar
   126    144    145 ar
   127    145    146 ar
   128    145    151 ar
   129    146    147 1
   130    146    148 ar
   131    148    149 ar
   132    149    150 ar
   133    150    151 ar
   134    163    164 1
   135    163    165 1
   136    163    166 1
   137    166    167 1
   138    167    168 1
   139    168    169 1
   140    168    170 1
   141    169    173 1
   142    170    171 1
   143    170    172 1
   144    172    173 1
   145    173    174 1
   146    174    175 am
   147    174    182 1
   148    175    176 2
   149    175    177 am
   150    177    178 am
   151    178    179 2
   152    178    180 1
   153    180    181 1
   154    180    182 2
   155    195    196 1
   156    195    197 1
   157    195    198 1
   158    198    199 1
   159    199    200 1
   160    200    201 1
   161    200    202 1
   162    201    205 1
   163    202    203 1
   164    202    204 1
   165    204    205 1
   166    205    206 1
   167    206    207 am
   168    206    214 1
   169    207    208 2
   170    207    209 am
   171    209    210 am
   172    210    211 2
   173    210    212 1
   174    212    213 1
   175    212    214 2
   176    227    228 1
   177    227    229 1
   178    227    230 1
   179    230    231 1
   180    231    232 1
   181    232    233 1
   182    232    234 1
   183    233    237 1
   184    234    235 1
   185    234    236 1
   186    236    237 1
   187    237    238 1
   188    238    239 am
   189    238    245 1
   190    239    240 2
   191    239    241 1
   192    241    242 2
   193    242    243 2
   194    242    244 2
   195    244    245 2
   196    257    258 1
   197    257    259 1
   198    257    260 1
   199    260    261 1
   200    261    262 1
   201    262    263 1
   202    262    264 1
   203    263    267 1
   204    264    265 1
   205    264    266 1
   206    266    267 1
   207    267    268 1
   208    268    269 ar
   209    268    277 ar
   210    269    270 ar
   211    270    271 ar
   212    271    272 ar
   213    271    277 ar
   214    272    273 1
   215    272    274 ar
   216    274    275 ar
   217    275    276 ar
   218    276    277 ar
   219    289    290 1
   220    289    291 1
   221    289    292 1
   222    292    293 1
   223    293    294 1
   224    294    295 1
   225    294    296 1
   226    295    299 1
   227    296    297 1
   228    296    298 1
   229    298    299 1
   230    299    300 1
   231    300    301 am
   232    300    307 1
   233    301    302 2
   234    301    303 1
   235    303    304 2
   236    304    305 2
   237    304    306 2
   238    306    307 2
   239    319    320 1
   240    319    321 1
   241    319    322 1
   242    322    323 1
   243    323    324 1
   244    324    325 1
   245    324    326 1
   246    325    329 1
   247    326    327 1
   248    326    328 1
   249    328    329 1
   250    329    330 1
   251    330    331 ar
   252    330    340 ar
   253    331    332 ar
   254    332    333 ar
   255    333    334 1
   256    333    340 ar
   257    334    335 2
   258    334    336 am
   259    336    337 1
   260    337    338 2
   261    337    339 2
   262    339    340 1
   263    352    353 1
   264    352    354 1
   265    352    355 1
   266    355    356 1
   267    356    357 1
   268    357    358 1
   269    357    359 1
   270    358    362 1
   271    359    360 1
   272    359    361 1
   273    361    362 1
   274    362    363 1
   275    363    364 am
   276    363    371 1
   277    364    365 2
   278    364    366 am
   279    366    367 am
   280    367    368 2
   281    367    369 1
   282    369    370 1
   283    369    371 2
   284    384    385 1
   285    384    386 1
   286    384    387 1
   287    387    388 1
   288    388    389 1
   289    389    390 1
   290    389    391 1
   291    390    394 1
   292    391    392 1
   293    391    393 1
   294    393    394 1
   295    394    395 1
   296    395    396 ar
   297    395    405 ar
   298    396    397 ar
   299    397    398 ar
   300    398    399 1
   301    398    405 ar
   302    399    400 2
   303    399    401 am
   304    401    402 1
   305    402    403 2
   306    402    404 2
   307    404    405 1
   308    417    418 1
   309    417    419 1
   310    417    420 1
   311    420    421 1
   312    421    422 1
   313    422    423 1
   314    422    424 1
   315    423    427 1
   316    424    425 1
   317    424    426 1
   318    426    427 1
   319    427    428 1
   320    428    429 ar
   321    428    437 ar
   322    429    430 ar
   323    430    431 ar
   324    431    432 ar
   325    431    437 ar
   326    432    433 1
   327    432    434 ar
   328    434    435 ar
   329    435    436 ar
   330    436    437 ar
   331    449    450 1
   332    449    451 1
   333    449    452 1
   334    452    453 1
   335    453    454 1
   336    454    455 1
   337    454    456 1
   338    455    459 1
   339    456    457 1
   340    456    458 1
   341    458    459 1
   342    459    460 1
   343    460    461 ar
   344    460    469 ar
   345    461    462 ar
   346    462    463 ar
   347    463    464 ar
   348    463    469 ar
   349    464    465 1
   350    464    466 ar
   351    466    467 ar
   352    467    468 ar
   353    468    469 ar
   354    481    482 1
   355    481    483 1
   356    481    484 1
   357    484    485 1
   358    485    486 1
   359    486    487 1
   360    486    488 1
   361    487    491 1
   362    488    489 1
   363    488    490 1
   364    490    491 1
   365    491    492 1
   366    492    493 am
   367    492    500 1
   368    493    494 2
   369    493    495 am
   370    495    496 am
   371    496    497 2
   372    496    498 1
   373    498    499 1
   374    498    500 2
   375    513    514 1
   376    513    515 1
   377    513    516 1
   378    516    517 1
   379    517    518 1
   380    518    519 1
   381    518    520 1
   382    519    523 1
   383    520    521 1
   384    520    522 1
   385    522    523 1
   386    523    524 1
   387    524    525 am
   388    524    532 1
   389    525    526 2
   390    525    527 am
   391    527    528 am
   392    528    529 2
   393    528    530 1
   394    530    531 1
   395    530    532 2
   396    545    546 1
   397    545    547 1
   398    545    548 1
   399    548    549 1
   400    549    550 1
   401    550    551 1
   402    550    552 1
   403    551    555 1
   404    552    553 1
   405    552    554 1
   406    554    555 1
   407    555    556 1
   408    556    557 am
   409    556    563 1
   410    557    558 2
   411    557    559 1
   412    559    560 2
   413    560    561 2
   414    560    562 2
   415    562    563 2
   416    575    576 1
   417    575    577 1
   418    575    578 1
   419    578    579 1
   420    579    580 1
   421    580    581 1
   422    580    582 1
   423    581    585 1
   424    582    583 1
   425    582    584 1
   426    584    585 1
   427    585    586 1
   428    586    587 ar
   429    586    595 ar
   430    587    588 ar
   431    588    589 ar
   432    589    590 ar
   433    589    595 ar
   434    590    591 1
   435    590    592 ar
   436    592    593 ar
   437    593    594 ar
   438    594    595 ar
   439    607    608 1
   440    607    609 1
   441    607    610 1
   442    610    611 1
   443    611    612 1
   444    612    613 1
   445    612    614 1
   446    613    617 1
   447    614    615 1
   448    614    616 1
   449    616    617 1
   450    617    618 1
   451    618    619 am
   452    618    625 1
   453    619    620 2
   454    619    621 1
   455    621    622 2
   456    622    623 2
   457    622    624 2
   458    624    625 2
   459     23      5 1
   460     24      5 1
   461     25      6 1
   462     26      8 1
   463     27     10 1
   464     28     10 1
   465     29     11 1
   466     30     13 1
   467     31     18 1
   468     54     38 1
   469     55     38 1
   470     56     39 1
   471     57     41 1
   472     58     43 1
   473     59     43 1
   474     60     44 1
   475     61     48 1
   476     62     53 1
   477     88     70 1
   478     89     70 1
   479     90     71 1
   480     91     73 1
   481     92     75 1
   482     93     75 1
   483     94     76 1
   484     95     78 1
   485     96     83 1
   486    120    103 1
   487    121    103 1
   488    122    104 1
   489    123    106 1
   490    124    108 1
   491    125    108 1
   492    126    109 1
   493    127    111 1
   494    128    117 1
   495    152    135 1
   496    153    135 1
   497    154    136 1
   498    155    138 1
   499    156    140 1
   500    157    140 1
   501    158    141 1
   502    159    143 1
   503    160    149 1
   504    183    167 1
   505    184    167 1
   506    185    168 1
   507    186    170 1
   508    187    172 1
   509    188    172 1
   510    189    173 1
   511    190    177 1
   512    191    182 1
   513    215    199 1
   514    216    199 1
   515    217    200 1
   516    218    202 1
   517    219    204 1
   518    220    204 1
   519    221    205 1
   520    222    209 1
   521    223    214 1
   522    246    231 1
   523    247    231 1
   524    248    232 1
   525    249    234 1
   526    250    236 1
   527    251    236 1
   528    252    237 1
   529    253    244 1
   530    254    245 1
   531    278    261 1
   532    279    261 1
   533    280    262 1
   534    281    264 1
   535    282    266 1
   536    283    266 1
   537    284    267 1
   538    285    269 1
   539    286    275 1
   540    308    293 1
   541    309    293 1
   542    310    294 1
   543    311    296 1
   544    312    298 1
   545    313    298 1
   546    314    299 1
   547    315    306 1
   548    316    307 1
   549    341    323 1
   550    342    323 1
   551    343    324 1
   552    344    326 1
   553    345    328 1
   554    346    328 1
   555    347    329 1
   556    348    331 1
   557    349    336 1
   558    372    356 1
   559    373    356 1
   560    374    357 1
   561    375    359 1
   562    376    361 1
   563    377    361 1
   564    378    362 1
   565    379    366 1
   566    380    371 1
   567    406    388 1
   568    407    388 1
   569    408    389 1
   570    409    391 1
   571    410    393 1
   572    411    393 1
   573    412    394 1
   574    413    396 1
   575    414    401 1
   576    438    421 1
   577    439    421 1
   578    440    422 1
   579    441    424 1
   580    442    426 1
   581    443    426 1
   582    444    427 1
   583    445    429 1
   584    446    435 1
   585    470    453 1
   586    471    453 1
   587    472    454 1
   588    473    456 1
   589    474    458 1
   590    475    458 1
   591    476    459 1
   592    477    461 1
   593    478    467 1
   594    501    485 1
   595    502    485 1
   596    503    486 1
   597    504    488 1
   598    505    490 1
   599    506    490 1
   600    507    491 1
   601    508    495 1
   602    509    500 1
   603    533    517 1
   604    534    517 1
   605    535    518 1
   606    536    520 1
   607    537    522 1
   608    538    522 1
   609    539    523 1
   610    540    527 1
   611    541    532 1
   612    564    549 1
   613    565    549 1
   614    566    550 1
   615    567    552 1
   616    568    554 1
   617    569    554 1
   618    570    555 1
   619    571    562 1
   620    572    563 1
   621    596    579 1
   622    597    579 1
   623    598    580 1
   624    599    582 1
   625    600    584 1
   626    601    584 1
   627    602    585 1
   628    603    587 1
   629    604    593 1
   630    626    611 1
   631    627    611 1
   632    628    612 1
   633    629    614 1
   634    630    616 1
   635    631    616 1
   636    632    617 1
   637    633    624 1
   638    634    625 1
   639     32     20 1
   640     33     20 1
   641     97     85 1
   642     98     85 1
   643    255    243 1
   644    256    243 1
   645    317    305 1
   646    318    305 1
   647    350    338 1
   648    351    338 1
   649    415    403 1
   650    416    403 1
   651    573    561 1
   652    574    561 1
   653    635    623 1
   654    636    623 1
   655    129    115 1
   656    130    115 1
   657    161    147 1
   658    162    147 1
   659    287    273 1
   660    288    273 1
   661    447    433 1
   662    448    433 1
   663    479    465 1
   664    480    465 1
   665    605    591 1
   666    606    591 1
   667     63     52 1
   668     64     52 1
   669     65     52 1
   670    192    181 1
   671    193    181 1
   672    194    181 1
   673    224    213 1
   674    225    213 1
   675    226    213 1
   676    381    370 1
   677    382    370 1
   678    383    370 1
   679    510    499 1
   680    511    499 1
   681    512    499 1
   682    542    531 1
   683    543    531 1
   684    544    531 1
   685    297    637 1
   686    319   1251 1
   687    645    670 1
   688    678    702 1
   689    710    735 1
   690    743    767 1
   691    775    799 1
   692    807    831 1
   693    839    863 1
   694    871    893 1
   695    901    925 1
   696    963    988 1
   697    996   1020 1
   698   1028   1053 1
   699   1061   1085 1
   700   1093   1117 1
   701   1125   1149 1
   702   1157   1181 1
   703   1189   1211 1
   704   1219   1243 1
   705    637    638 1
   706    637    639 1
   707    637    640 1
   708    640    641 1
   709    641    642 1
   710    642    643 1
   711    642    644 1
   712    643    647 1
   713    644    645 1
   714    644    646 1
   715    646    647 1
   716    647    648 1
   717    648    649 ar
   718    648    658 ar
   719    649    650 ar
   720    650    651 ar
   721    651    652 1
   722    651    658 ar
   723    652    653 2
   724    652    654 am
   725    654    655 1
   726    655    656 2
   727    655    657 2
   728    657    658 1
   729    670    671 1
   730    670    672 1
   731    670    673 1
   732    673    674 1
   733    674    675 1
   734    675    676 1
   735    675    677 1
   736    676    680 1
   737    677    678 1
   738    677    679 1
   739    679    680 1
   740    680    681 1
   741    681    682 am
   742    681    689 1
   743    682    683 2
   744    682    684 am
   745    684    685 am
   746    685    686 2
   747    685    687 1
   748    687    688 1
   749    687    689 2
   750    702    703 1
   751    702    704 1
   752    702    705 1
   753    705    706 1
   754    706    707 1
   755    707    708 1
   756    707    709 1
   757    708    712 1
   758    709    710 1
   759    709    711 1
   760    711    712 1
   761    712    713 1
   762    713    714 ar
   763    713    723 ar
   764    714    715 ar
   765    715    716 ar
   766    716    717 1
   767    716    723 ar
   768    717    718 2
   769    717    719 am
   770    719    720 1
   771    720    721 2
   772    720    722 2
   773    722    723 1
   774    735    736 1
   775    735    737 1
   776    735    738 1
   777    738    739 1
   778    739    740 1
   779    740    741 1
   780    740    742 1
   781    741    745 1
   782    742    743 1
   783    742    744 1
   784    744    745 1
   785    745    746 1
   786    746    747 ar
   787    746    755 ar
   788    747    748 ar
   789    748    749 ar
   790    749    750 ar
   791    749    755 ar
   792    750    751 1
   793    750    752 ar
   794    752    753 ar
   795    753    754 ar
   796    754    755 ar
   797    767    768 1
   798    767    769 1
   799    767    770 1
   800    770    771 1
   801    771    772 1
   802    772    773 1
   803    772    774 1
   804    773    777 1
   805    774    775 1
   806    774    776 1
   807    776    777 1
   808    777    778 1
   809    778    779 ar
   810    778    787 ar
   811    779    780 ar
   812    780    781 ar
   813    781    782 ar
   814    781    787 ar
   815    782    783 1
   816    782    784 ar
   817    784    785 ar
   818    785    786 ar
   819    786    787 ar
   820    799    800 1
   821    799    801 1
   822    799    802 1
   823    802    803 1
   824    803    804 1
   825    804    805 1
   826    804    806 1
   827    805    809 1
   828    806    807 1
   829    806    808 1
   830    808    809 1
   831    809    810 1
   832    810    811 am
   833    810    818 1
   834    811    812 2
   835    811    813 am
   836    813    814 am
   837    814    815 2
   838    814    816 1
   839    816    817 1
   840    816    818 2
   841    831    832 1
   842    831    833 1
   843    831    834 1
   844    834    835 1
   845    835    836 1
   846    836    837 1
   847    836    838 1
   848    837    841 1
   849    838    839 1
   850    838    840 1
   851    840    841 1
   852    841    842 1
   853    842    843 am
   854    842    850 1
   855    843    844 2
   856    843    845 am
   857    845    846 am
   858    846    847 2
   859    846    848 1
   860    848    849 1
   861    848    850 2
   862    863    864 1
   863    863    865 1
   864    863    866 1
   865    866    867 1
   866    867    868 1
   867    868    869 1
   868    868    870 1
   869    869    873 1
   870    870    871 1
   871    870    872 1
   872    872    873 1
   873    873    874 1
   874    874    875 am
   875    874    881 1
   876    875    876 2
   877    875    877 1
   878    877    878 2
   879    878    879 2
   880    878    880 2
   881    880    881 2
   882    893    894 1
   883    893    895 1
   884    893    896 1
   885    896    897 1
   886    897    898 1
   887    898    899 1
   888    898    900 1
   889    899    903 1
   890    900    901 1
   891    900    902 1
   892    902    903 1
   893    903    904 1
   894    904    905 ar
   895    904    913 ar
   896    905    906 ar
   897    906    907 ar
   898    907    908 ar
   899    907    913 ar
   900    908    909 1
   901    908    910 ar
   902    910    911 ar
   903    911    912 ar
   904    912    913 ar
   905    925    926 1
   906    925    927 1
   907    925    928 1
   908    928    929 1
   909    929    930 1
   910    930    931 1
   911    930    932 1
   912    931    935 1
   913    932    933 1
   914    932    934 1
   915    934    935 1
   916    935    936 1
   917    936    937 am
   918    936    943 1
   919    937    938 2
   920    937    939 1
   921    939    940 2
   922    940    941 2
   923    940    942 2
   924    942    943 2
   925    955    956 1
   926    955    957 1
   927    955    958 1
   928    958    959 1
   929    959    960 1
   930    960    961 1
   931    960    962 1
   932    961    965 1
   933    962    963 1
   934    962    964 1
   935    964    965 1
   936    965    966 1
   937    966    967 ar
   938    966    976 ar
   939    967    968 ar
   940    968    969 ar
   941    969    970 1
   942    969    976 ar
   943    970    971 2
   944    970    972 am
   945    972    973 1
   946    973    974 2
   947    973    975 2
   948    975    976 1
   949    988    989 1
   950    988    990 1
   951    988    991 1
   952    991    992 1
   953    992    993 1
   954    993    994 1
   955    993    995 1
   956    994    998 1
   957    995    996 1
   958    995    997 1
   959    997    998 1
   960    998    999 1
   961    999   1000 am
   962    999   1007 1
   963   1000   1001 2
   964   1000   1002 am
   965   1002   1003 am
   966   1003   1004 2
   967   1003   1005 1
   968   1005   1006 1
   969   1005   1007 2
   970   1020   1021 1
   971   1020   1022 1
   972   1020   1023 1
   973   1023   1024 1
   974   1024   1025 1
   975   1025   1026 1
   976   1025   1027 1
   977   1026   1030 1
   978   1027   1028 1
   979   1027   1029 1
   980   1029   1030 1
   981   1030   1031 1
   982   1031   1032 ar
   983   1031   1041 ar
   984   1032   1033 ar
   985   1033   1034 ar
   986   1034   1035 1
   987   1034   1041 ar
   988   1035   1036 2
   989   1035   1037 am
   990   1037   1038 1
   991   1038   1039 2
   992   1038   1040 2
   993   1040   1041 1
   994   1053   1054 1
   995   1053   1055 1
   996   1053   1056 1
   997   1056   1057 1
   998   1057   1058 1
   999   1058   1059 1
  1000   1058   1060 1
  1001   1059   1063 1
  1002   1060   1061 1
  1003   1060   1062 1
  1004   1062   1063 1
  1005   1063   1064 1
  1006   1064   1065 ar
  1007   1064   1073 ar
  1008   1065   1066 ar
  1009   1066   1067 ar
  1010   1067   1068 ar
  1011   1067   1073 ar
  1012   1068   1069 1
  1013   1068   1070 ar
  1014   1070   1071 ar
  1015   1071   1072 ar
  1016   1072   1073 ar
  1017   1085   1086 1
  1018   1085   1087 1
  1019   1085   1088 1
  1020   1088   1089 1
  1021   1089   1090 1
  1022   1090   1091 1
  1023   1090   1092 1
  1024   1091   1095 1
  1025   1092   1093 1
  1026   1092   1094 1
  1027   1094   1095 1
  1028   1095   1096 1
  1029   1096   1097 ar
  1030   1096   1105 ar
  1031   1097   1098 ar
  1032   1098   1099 ar
  1033   1099   1100 ar
  1034   1099   1105 ar
  1035   1100   1101 1
  1036   1100   1102 ar
  1037   1102   1103 ar
  1038   1103   1104 ar
  1039   1104   1105 ar
  1040   1117   1118 1
  1041   1117   1119 1
  1042   1117   1120 1
  1043   1120   1121 1
  1044   1121   1122 1
  1045   1122   1123 1
  1046   1122   1124 1
  1047   1123   1127 1
  1048   1124   1125 1
  1049   1124   1126 1
  1050   1126   1127 1
  1051   1127   1128 1
  1052   1128   1129 am
  1053   1128   1136 1
  1054   1129   1130 2
  1055   1129   1131 am
  1056   1131   1132 am
  1057   1132   1133 2
  1058   1132   1134 1
  1059   1134   1135 1
  1060   1134   1136 2
  1061   1149   1150 1
  1062   1149   1151 1
  1063   1149   1152 1
  1064   1152   1153 1
  1065   1153   1154 1
  1066   1154   1155 1
  1067   1154   1156 1
  1068   1155   1159 1
  1069   1156   1157 1
  1070   1156   1158 1
  1071   1158   1159 1
  1072   1159   1160 1
  1073   1160   1161 am
  1074   1160   1168 1
  1075   1161   1162 2
  1076   1161   1163 am
  1077   1163   1164 am
  1078   1164   1165 2
  1079   1164   1166 1
  1080   1166   1167 1
  1081   1166   1168 2
  1082   1181   1182 1
  1083   1181   1183 1
  1084   1181   1184 1
  1085   1184   1185 1
  1086   1185   1186 1
  1087   1186   1187 1
  1088   1186   1188 1
  1089   1187   1191 1
  1090   1188   1189 1
  1091   1188   1190 1
  1092   1190   1191 1
  1093   1191   1192 1
  1094   1192   1193 am
  1095   1192   1199 1
  1096   1193   1194 2
  1097   1193   1195 1
  1098   1195   1196 2
  1099   1196   1197 2
  1100   1196   1198 2
  1101   1198   1199 2
  1102   1211   1212 1
  1103   1211   1213 1
  1104   1211   1214 1
  1105   1214   1215 1
  1106   1215   1216 1
  1107   1216   1217 1
  1108   1216   1218 1
  1109   1217   1221 1
  1110   1218   1219 1
  1111   1218   1220 1
  1112   1220   1221 1
  1113   1221   1222 1
  1114   1222   1223 ar
  1115   1222   1231 ar
  1116   1223   1224 ar
  1117   1224   1225 ar
  1118   1225   1226 ar
  1119   1225   1231 ar
  1120   1226   1227 1
  1121   1226   1228 ar
  1122   1228   1229 ar
  1123   1229   1230 ar
  1124   1230   1231 ar
  1125   1243   1244 1
  1126   1243   1245 1
  1127   1243   1246 1
  1128   1246   1247 1
  1129   1247   1248 1
  1130   1248   1249 1
  1131   1248   1250 1
  1132   1249   1253 1
  1133   1250   1251 1
  1134   1250   1252 1
  1135   1252   1253 1
  1136   1253   1254 1
  1137   1254   1255 am
  1138   1254   1261 1
  1139   1255   1256 2
  1140   1255   1257 1
  1141   1257   1258 2
  1142   1258   1259 2
  1143   1258   1260 2
  1144   1260   1261 2
  1145    659    641 1
  1146    660    641 1
  1147    661    642 1
  1148    662    644 1
  1149    663    646 1
  1150    664    646 1
  1151    665    647 1
  1152    666    649 1
  1153    667    654 1
  1154    690    674 1
  1155    691    674 1
  1156    692    675 1
  1157    693    677 1
  1158    694    679 1
  1159    695    679 1
  1160    696    680 1
  1161    697    684 1
  1162    698    689 1
  1163    724    706 1
  1164    725    706 1
  1165    726    707 1
  1166    727    709 1
  1167    728    711 1
  1168    729    711 1
  1169    730    712 1
  1170    731    714 1
  1171    732    719 1
  1172    756    739 1
  1173    757    739 1
  1174    758    740 1
  1175    759    742 1
  1176    760    744 1
  1177    761    744 1
  1178    762    745 1
  1179    763    747 1
  1180    764    753 1
  1181    788    771 1
  1182    789    771 1
  1183    790    772 1
  1184    791    774 1
  1185    792    776 1
  1186    793    776 1
  1187    794    777 1
  1188    795    779 1
  1189    796    785 1
  1190    819    803 1
  1191    820    803 1
  1192    821    804 1
  1193    822    806 1
  1194    823    808 1
  1195    824    808 1
  1196    825    809 1
  1197    826    813 1
  1198    827    818 1
  1199    851    835 1
  1200    852    835 1
  1201    853    836 1
  1202    854    838 1
  1203    855    840 1
  1204    856    840 1
  1205    857    841 1
  1206    858    845 1
  1207    859    850 1
  1208    882    867 1
  1209    883    867 1
  1210    884    868 1
  1211    885    870 1
  1212    886    872 1
  1213    887    872 1
  1214    888    873 1
  1215    889    880 1
  1216    890    881 1
  1217    914    897 1
  1218    915    897 1
  1219    916    898 1
  1220    917    900 1
  1221    918    902 1
  1222    919    902 1
  1223    920    903 1
  1224    921    905 1
  1225    922    911 1
  1226    944    929 1
  1227    945    929 1
  1228    946    930 1
  1229    947    932 1
  1230    948    934 1
  1231    949    934 1
  1232    950    935 1
  1233    951    942 1
  1234    952    943 1
  1235    977    959 1
  1236    978    959 1
  1237    979    960 1
  1238    980    962 1
  1239    981    964 1
  1240    982    964 1
  1241    983    965 1
  1242    984    967 1
  1243    985    972 1
  1244   1008    992 1
  1245   1009    992 1
  1246   1010    993 1
  1247   1011    995 1
  1248   1012    997 1
  1249   1013    997 1
  1250   1014    998 1
  1251   1015   1002 1
  1252   1016   1007 1
  1253   1042   1024 1
  1254   1043   1024 1
  1255   1044   1025 1
  1256   1045   1027 1
  1257   1046   1029 1
  1258   1047   1029 1
  1259   1048   1030 1
  1260   1049   1032 1
  1261   1050   1037 1
  1262   1074   1057 1
  1263   1075   1057 1
  1264   1076   1058 1
  1265   1077   1060 1
  1266   1078   1062 1
  1267   1079   1062 1
  1268   1080   1063 1
  1269   1081   1065 1
  1270   1082   1071 1
  1271   1106   1089 1
  1272   1107   1089 1
  1273   1108   1090 1
  1274   1109   1092 1
  1275   1110   1094 1
  1276   1111   1094 1
  1277   1112   1095 1
  1278   1113   1097 1
  1279   1114   1103 1
  1280   1137   1121 1
  1281   1138   1121 1
  1282   1139   1122 1
  1283   1140   1124 1
  1284   1141   1126 1
  1285   1142   1126 1
  1286   1143   1127 1
  1287   1144   1131 1
  1288   1145   1136 1
  1289   1169   1153 1
  1290   1170   1153 1
  1291   1171   1154 1
  1292   1172   1156 1
  1293   1173   1158 1
  1294   1174   1158 1
  1295   1175   1159 1
  1296   1176   1163 1
  1297   1177   1168 1
  1298   1200   1185 1
  1299   1201   1185 1
  1300   1202   1186 1
  1301   1203   1188 1
  1302   1204   1190 1
  1303   1205   1190 1
  1304   1206   1191 1
  1305   1207   1198 1
  1306   1208   1199 1
  1307   1232   1215 1
  1308   1233   1215 1
  1309   1234   1216 1
  1310   1235   1218 1
  1311   1236   1220 1
  1312   1237   1220 1
  1313   1238   1221 1
  1314   1239   1223 1
  1315   1240   1229 1
  1316   1262   1247 1
  1317   1263   1247 1
  1318   1264   1248 1
  1319   1265   1250 1
  1320   1266   1252 1
  1321   1267   1252 1
  1322   1268   1253 1
  1323   1269   1260 1
  1324   1270   1261 1
  1325    668    656 1
  1326    669    656 1
  1327    733    721 1
  1328    734    721 1
  1329    891    879 1
  1330    892    879 1
  1331    953    941 1
  1332    954    941 1
  1333    986    974 1
  1334    987    974 1
  1335   1051   1039 1
  1336   1052   1039 1
  1337   1209   1197 1
  1338   1210   1197 1
  1339   1271   1259 1
  1340   1272   1259 1
  1341    765    751 1
  1342    766    751 1
  1343    797    783 1
  1344    798    783 1
  1345    923    909 1
  1346    924    909 1
  1347   1083   1069 1
  1348   1084   1069 1
  1349   1115   1101 1
  1350   1116   1101 1
  1351   1241   1227 1
  1352   1242   1227 1
  1353    699    688 1
  1354    700    688 1
  1355    701    688 1
  1356    828    817 1
  1357    829    817 1
  1358    830    817 1
  1359    860    849 1
  1360    861    849 1
  1361    862    849 1
  1362   1017   1006 1
  1363   1018   1006 1
  1364   1019   1006 1
  1365   1146   1135 1
  1366   1147   1135 1
  1367   1148   1135 1
  1368   1178   1167 1
  1369   1179   1167 1
  1370   1180   1167 1
  1371    933   1273 1
  1372    955   1887 1
  1373   1281   1306 1
  1374   1314   1338 1
  1375   1346   1371 1
  1376   1379   1403 1
  1377   1411   1435 1
  1378   1443   1467 1
  1379   1475   1499 1
  1380   1507   1529 1
  1381   1537   1561 1
  1382   1599   1624 1
  1383   1632   1656 1
  1384   1664   1689 1
  1385   1697   1721 1
  1386   1729   1753 1
  1387   1761   1785 1
  1388   1793   1817 1
  1389   1825   1847 1
  1390   1855   1879 1
  1391   1273   1274 1
  1392   1273   1275 1
  1393   1273   1276 1
  1394   1276   1277 1
  1395   1277   1278 1
  1396   1278   1279 1
  1397   1278   1280 1
  1398   1279   1283 1
  1399   1280   1281 1
  1400   1280   1282 1
  1401   1282   1283 1
  1402   1283   1284 1
  1403   1284   1285 ar
  1404   1284   1294 ar
  1405   1285   1286 ar
  1406   1286   1287 ar
  1407   1287   1288 1
  1408   1287   1294 ar
  1409   1288   1289 2
  1410   1288   1290 am
  1411   1290   1291 1
  1412   1291   1292 2
  1413   1291   1293 2
  1414   1293   1294 1
  1415   1306   1307 1
  1416   1306   1308 1
  1417   1306   1309 1
  1418   1309   1310 1
  1419   1310   1311 1
  1420   1311   1312 1
  1421   1311   1313 1
  1422   1312   1316 1
  1423   1313   1314 1
  1424   1313   1315 1
  1425   1315   1316 1
  1426   1316   1317 1
  1427   1317   1318 am
  1428   1317   1325 1
  1429   1318   1319 2
  1430   1318   1320 am
  1431   1320   1321 am
  1432   1321   1322 2
  1433   1321   1323 1
  1434   1323   1324 1
  1435   1323   1325 2
  1436   1338   1339 1
  1437   1338   1340 1
  1438   1338   1341 1
  1439   1341   1342 1
  1440   1342   1343 1
  1441   1343   1344 1
  1442   1343   1345 1
  1443   1344   1348 1
  1444   1345   1346 1
  1445   1345   1347 1
  1446   1347   1348 1
  1447   1348   1349 1
  1448   1349   1350 ar
  1449   1349   1359 ar
  1450   1350   1351 ar
  1451   1351   1352 ar
  1452   1352   1353 1
  1453   1352   1359 ar
  1454   1353   1354 2
  1455   1353   1355 am
  1456   1355   1356 1
  1457   1356   1357 2
  1458   1356   1358 2
  1459   1358   1359 1
  1460   1371   1372 1
  1461   1371   1373 1
  1462   1371   1374 1
  1463   1374   1375 1
  1464   1375   1376 1
  1465   1376   1377 1
  1466   1376   1378 1
  1467   1377   1381 1
  1468   1378   1379 1
  1469   1378   1380 1
  1470   1380   1381 1
  1471   1381   1382 1
  1472   1382   1383 ar
  1473   1382   1391 ar
  1474   1383   1384 ar
  1475   1384   1385 ar
  1476   1385   1386 ar
  1477   1385   1391 ar
  1478   1386   1387 1
  1479   1386   1388 ar
  1480   1388   1389 ar
  1481   1389   1390 ar
  1482   1390   1391 ar
  1483   1403   1404 1
  1484   1403   1405 1
  1485   1403   1406 1
  1486   1406   1407 1
  1487   1407   1408 1
  1488   1408   1409 1
  1489   1408   1410 1
  1490   1409   1413 1
  1491   1410   1411 1
  1492   1410   1412 1
  1493   1412   1413 1
  1494   1413   1414 1
  1495   1414   1415 ar
  1496   1414   1423 ar
  1497   1415   1416 ar
  1498   1416   1417 ar
  1499   1417   1418 ar
  1500   1417   1423 ar
  1501   1418   1419 1
  1502   1418   1420 ar
  1503   1420   1421 ar
  1504   1421   1422 ar
  1505   1422   1423 ar
  1506   1435   1436 1
  1507   1435   1437 1
  1508   1435   1438 1
  1509   1438   1439 1
  1510   1439   1440 1
  1511   1440   1441 1
  1512   1440   1442 1
  1513   1441   1445 1
  1514   1442   1443 1
  1515   1442   1444 1
  1516   1444   1445 1
  1517   1445   1446 1
  1518   1446   1447 am
  1519   1446   1454 1
  1520   1447   1448 2
  1521   1447   1449 am
  1522   1449   1450 am
  1523   1450   1451 2
  1524   1450   1452 1
  1525   1452   1453 1
  1526   1452   1454 2
  1527   1467   1468 1
  1528   1467   1469 1
  1529   1467   1470 1
  1530   1470   1471 1
  1531   1471   1472 1
  1532   1472   1473 1
  1533   1472   1474 1
  1534   1473   1477 1
  1535   1474   1475 1
  1536   1474   1476 1
  1537   1476   1477 1
  1538   1477   1478 1
  1539   1478   1479 am
  1540   1478   1486 1
  1541   1479   1480 2
  1542   1479   1481 am
  1543   1481   1482 am
  1544   1482   1483 2
  1545   1482   1484 1
  1546   1484   1485 1
  1547   1484   1486 2
  1548   1499   1500 1
  1549   1499   1501 1
  1550   1499   1502 1
  1551   1502   1503 1
  1552   1503   1504 1
  1553   1504   1505 1
  1554   1504   1506 1
  1555   1505   1509 1
  1556   1506   1507 1
  1557   1506   1508 1
  1558   1508   1509 1
  1559   1509   1510 1
  1560   1510   1511 am
  1561   1510   1517 1
  1562   1511   1512 2
  1563   1511   1513 1
  1564   1513   1514 2
  1565   1514   1515 2
  1566   1514   1516 2
  1567   1516   1517 2
  1568   1529   1530 1
  1569   1529   1531 1
  1570   1529   1532 1
  1571   1532   1533 1
  1572   1533   1534 1
  1573   1534   1535 1
  1574   1534   1536 1
  1575   1535   1539 1
  1576   1536   1537 1
  1577   1536   1538 1
  1578   1538   1539 1
  1579   1539   1540 1
  1580   1540   1541 ar
  1581   1540   1549 ar
  1582   1541   1542 ar
  1583   1542   1543 ar
  1584   1543   1544 ar
  1585   1543   1549 ar
  1586   1544   1545 1
  1587   1544   1546 ar
  1588   1546   1547 ar
  1589   1547   1548 ar
  1590   1548   1549 ar
  1591   1561   1562 1
  1592   1561   1563 1
  1593   1561   1564 1
  1594   1564   1565 1
  1595   1565   1566 1
  1596   1566   1567 1
  1597   1566   1568 1
  1598   1567   1571 1
  1599   1568   1569 1
  1600   1568   1570 1
  1601   1570   1571 1
  1602   1571   1572 1
  1603   1572   1573 am
  1604   1572   1579 1
  1605   1573   1574 2
  1606   1573   1575 1
  1607   1575   1576 2
  1608   1576   1577 2
  1609   1576   1578 2
  1610   1578   1579 2
  1611   1591   1592 1
  1612   1591   1593 1
  1613   1591   1594 1
  1614   1594   1595 1
  1615   1595   1596 1
  1616   1596   1597 1
  1617   1596   1598 1
  1618   1597   1601 1
  1619   1598   1599 1
  1620   1598   1600 1
  1621   1600   1601 1
  1622   1601   1602 1
  1623   1602   1603 ar
  1624   1602   1612 ar
  1625   1603   1604 ar
  1626   1604   1605 ar
  1627   1605   1606 1
  1628   1605   1612 ar
  1629   1606   1607 2
  1630   1606   1608 am
  1631   1608   1609 1
  1632   1609   1610 2
  1633   1609   1611 2
  1634   1611   1612 1
  1635   1624   1625 1
  1636   1624   1626 1
  1637   1624   1627 1
  1638   1627   1628 1
  1639   1628   1629 1
  1640   1629   1630 1
  1641   1629   1631 1
  1642   1630   1634 1
  1643   1631   1632 1
  1644   1631   1633 1
  1645   1633   1634 1
  1646   1634   1635 1
  1647   1635   1636 am
  1648   1635   1643 1
  1649   1636   1637 2
  1650   1636   1638 am
  1651   1638   1639 am
  1652   1639   1640 2
  1653   1639   1641 1
  1654   1641   1642 1
  1655   1641   1643 2
  1656   1656   1657 1
  1657   1656   1658 1
  1658   1656   1659 1
  1659   1659   1660 1
  1660   1660   1661 1
  1661   1661   1662 1
  1662   1661   1663 1
  1663   1662   1666 1
  1664   1663   1664 1
  1665   1663   1665 1
  1666   1665   1666 1
  1667   1666   1667 1
  1668   1667   1668 ar
  1669   1667   1677 ar
  1670   1668   1669 ar
  1671   1669   1670 ar
  1672   1670   1671 1
  1673   1670   1677 ar
  1674   1671   1672 2
  1675   1671   1673 am
  1676   1673   1674 1
  1677   1674   1675 2
  1678   1674   1676 2
  1679   1676   1677 1
  1680   1689   1690 1
  1681   1689   1691 1
  1682   1689   1692 1
  1683   1692   1693 1
  1684   1693   1694 1
  1685   1694   1695 1
  1686   1694   1696 1
  1687   1695   1699 1
  1688   1696   1697 1
  1689   1696   1698 1
  1690   1698   1699 1
  1691   1699   1700 1
  1692   1700   1701 ar
  1693   1700   1709 ar
  1694   1701   1702 ar
  1695   1702   1703 ar
  1696   1703   1704 ar
  1697   1703   1709 ar
  1698   1704   1705 1
  1699   1704   1706 ar
  1700   1706   1707 ar
  1701   1707   1708 ar
  1702   1708   1709 ar
  1703   1721   1722 1
  1704   1721   1723 1
  1705   1721   1724 1
  1706   1724   1725 1
  1707   1725   1726 1
  1708   1726   1727 1
  1709   1726   1728 1
  1710   1727   1731 1
  1711   1728   1729 1
  1712   1728   1730 1
  1713   1730   1731 1
  1714   1731   1732 1
  1715   1732   1733 ar
  1716   1732   1741 ar
  1717   1733   1734 ar
  1718   1734   1735 ar
  1719   1735   1736 ar
  1720   1735   1741 ar
  1721   1736   1737 1
  1722   1736   1738 ar
  1723   1738   1739 ar
  1724   1739   1740 ar
  1725   1740   1741 ar
  1726   1753   1754 1
  1727   1753   1755 1
  1728   1753   1756 1
  1729   1756   1757 1
  1730   1757   1758 1
  1731   1758   1759 1
  1732   1758   1760 1
  1733   1759   1763 1
  1734   1760   1761 1
  1735   1760   1762 1
  1736   1762   1763 1
  1737   1763   1764 1
  1738   1764   1765 am
  1739   1764   1772 1
  1740   1765   1766 2
  1741   1765   1767 am
  1742   1767   1768 am
  1743   1768   1769 2
  1744   1768   1770 1
  1745   1770   1771 1
  1746   1770   1772 2
  1747   1785   1786 1
  1748   1785   1787 1
  1749   1785   1788 1
  1750   1788   1789 1
  1751   1789   1790 1
  1752   1790   1791 1
  1753   1790   1792 1
  1754   1791   1795 1
  1755   1792   1793 1
  1756   1792   1794 1
  1757   1794   1795 1
  1758   1795   1796 1
  1759   1796   1797 am
  1760   1796   1804 1
  1761   1797   1798 2
  1762   1797   1799 am
  1763   1799   1800 am
  1764   1800   1801 2
  1765   1800   1802 1
  1766   1802   1803 1
  1767   1802   1804 2
  1768   1817   1818 1
  1769   1817   1819 1
  1770   1817   1820 1
  1771   1820   1821 1
  1772   1821   1822 1
  1773   1822   1823 1
  1774   1822   1824 1
  1775   1823   1827 1
  1776   1824   1825 1
  1777   1824   1826 1
  1778   1826   1827 1
  1779   1827   1828 1
  1780   1828   1829 am
  1781   1828   1835 1
  1782   1829   1830 2
  1783   1829   1831 1
  1784   1831   1832 2
  1785   1832   1833 2
  1786   1832   1834 2
  1787   1834   1835 2
  1788   1847   1848 1
  1789   1847   1849 1
  1790   1847   1850 1
  1791   1850   1851 1
  1792   1851   1852 1
  1793   1852   1853 1
  1794   1852   1854 1
  1795   1853   1857 1
  1796   1854   1855 1
  1797   1854   1856 1
  1798   1856   1857 1
  1799   1857   1858 1
  1800   1858   1859 ar
  1801   1858   1867 ar
  1802   1859   1860 ar
  1803   1860   1861 ar
  1804   1861   1862 ar
  1805   1861   1867 ar
  1806   1862   1863 1
  1807   1862   1864 ar
  1808   1864   1865 ar
  1809   1865   1866 ar
  1810   1866   1867 ar
  1811   1879   1880 1
  1812   1879   1881 1
  1813   1879   1882 1
  1814   1882   1883 1
  1815   1883   1884 1
  1816   1884   1885 1
  1817   1884   1886 1
  1818   1885   1889 1
  1819   1886   1887 1
  1820   1886   1888 1
  1821   1888   1889 1
  1822   1889   1890 1
  1823   1890   1891 am
  1824   1890   1897 1
  1825   1891   1892 2
  1826   1891   1893 1
  1827   1893   1894 2
  1828   1894   1895 2
  1829   1894   1896 2
  1830   1896   1897 2
  1831   1295   1277 1
  1832   1296   1277 1
  1833   1297   1278 1
  1834   1298   1280 1
  1835   1299   1282 1
  1836   1300   1282 1
  1837   1301   1283 1
  1838   1302   1285 1
  1839   1303   1290 1
  1840   1326   1310 1
  1841   1327   1310 1
  1842   1328   1311 1
  1843   1329   1313 1
  1844   1330   1315 1
  1845   1331   1315 1
  1846   1332   1316 1
  1847   1333   1320 1
  1848   1334   1325 1
  1849   1360   1342 1
  1850   1361   1342 1
  1851   1362   1343 1
  1852   1363   1345 1
  1853   1364   1347 1
  1854   1365   1347 1
  1855   1366   1348 1
  1856   1367   1350 1
  1857   1368   1355 1
  1858   1392   1375 1
  1859   1393   1375 1
  1860   1394   1376 1
  1861   1395   1378 1
  1862   1396   1380 1
  1863   1397   1380 1
  1864   1398   1381 1
  1865   1399   1383 1
  1866   1400   1389 1
  1867   1424   1407 1
  1868   1425   1407 1
  1869   1426   1408 1
  1870   1427   1410 1
  1871   1428   1412 1
  1872   1429   1412 1
  1873   1430   1413 1
  1874   1431   1415 1
  1875   1432   1421 1
  1876   1455   1439 1
  1877   1456   1439 1
  1878   1457   1440 1
  1879   1458   1442 1
  1880   1459   1444 1
  1881   1460   1444 1
  1882   1461   1445 1
  1883   1462   1449 1
  1884   1463   1454 1
  1885   1487   1471 1
  1886   1488   1471 1
  1887   1489   1472 1
  1888   1490   1474 1
  1889   1491   1476 1
  1890   1492   1476 1
  1891   1493   1477 1
  1892   1494   1481 1
  1893   1495   1486 1
  1894   1518   1503 1
  1895   1519   1503 1
  1896   1520   1504 1
  1897   1521   1506 1
  1898   1522   1508 1
  1899   1523   1508 1
  1900   1524   1509 1
  1901   1525   1516 1
  1902   1526   1517 1
  1903   1550   1533 1
  1904   1551   1533 1
  1905   1552   1534 1
  1906   1553   1536 1
  1907   1554   1538 1
  1908   1555   1538 1
  1909   1556   1539 1
  1910   1557   1541 1
  1911   1558   1547 1
  1912   1580   1565 1
  1913   1581   1565 1
  1914   1582   1566 1
  1915   1583   1568 1
  1916   1584   1570 1
  1917   1585   1570 1
  1918   1586   1571 1
  1919   1587   1578 1
  1920   1588   1579 1
  1921   1613   1595 1
  1922   1614   1595 1
  1923   1615   1596 1
  1924   1616   1598 1
  1925   1617   1600 1
  1926   1618   1600 1
  1927   1619   1601 1
  1928   1620   1603 1
  1929   1621   1608 1
  1930   1644   1628 1
  1931   1645   1628 1
  1932   1646   1629 1
  1933   1647   1631 1
  1934   1648   1633 1
  1935   1649   1633 1
  1936   1650   1634 1
  1937   1651   1638 1
  1938   1652   1643 1
  1939   1678   1660 1
  1940   1679   1660 1
  1941   1680   1661 1
  1942   1681   1663 1
  1943   1682   1665 1
  1944   1683   1665 1
  1945   1684   1666 1
  1946   1685   1668 1
  1947   1686   1673 1
  1948   1710   1693 1
  1949   1711   1693 1
  1950   1712   1694 1
  1951   1713   1696 1
  1952   1714   1698 1
  1953   1715   1698 1
  1954   1716   1699 1
  1955   1717   1701 1
  1956   1718   1707 1
  1957   1742   1725 1
  1958   1743   1725 1
  1959   1744   1726 1
  1960   1745   1728 1
  1961   1746   1730 1
  1962   1747   1730 1
  1963   1748   1731 1
  1964   1749   1733 1
  1965   1750   1739 1
  1966   1773   1757 1
  1967   1774   1757 1
  1968   1775   1758 1
  1969   1776   1760 1
  1970   1777   1762 1
  1971   1778   1762 1
  1972   1779   1763 1
  1973   1780   1767 1
  1974   1781   1772 1
  1975   1805   1789 1
  1976   1806   1789 1
  1977   1807   1790 1
  1978   1808   1792 1
  1979   1809   1794 1
  1980   1810   1794 1
  1981   1811   1795 1
  1982   1812   1799 1
  1983   1813   1804 1
  1984   1836   1821 1
  1985   1837   1821 1
  1986   1838   1822 1
  1987   1839   1824 1
  1988   1840   1826 1
  1989   1841   1826 1
  1990   1842   1827 1
  1991   1843   1834 1
  1992   1844   1835 1
  1993   1868   1851 1
  1994   1869   1851 1
  1995   1870   1852 1
  1996   1871   1854 1
  1997   1872   1856 1
  1998   1873   1856 1
  1999   1874   1857 1
  2000   1875   1859 1
  2001   1876   1865 1
  2002   1898   1883 1
  2003   1899   1883 1
  2004   1900   1884 1
  2005   1901   1886 1
  2006   1902   1888 1
  2007   1903   1888 1
  2008   1904   1889 1
  2009   1905   1896 1
  2010   1906   1897 1
  2011   1304   1292 1
  2012   1305   1292 1
  2013   1369   1357 1
  2014   1370   1357 1
  2015   1527   1515 1
  2016   1528   1515 1
  2017   1589   1577 1
  2018   1590   1577 1
  2019   1622   1610 1
  2020   1623   1610 1
  2021   1687   1675 1
  2022   1688   1675 1
  2023   1845   1833 1
  2024   1846   1833 1
  2025   1907   1895 1
  2026   1908   1895 1
  2027   1401   1387 1
  2028   1402   1387 1
  2029   1433   1419 1
  2030   1434   1419 1
  2031   1559   1545 1
  2032   1560   1545 1
  2033   1719   1705 1
  2034   1720   1705 1
  2035   1751   1737 1
  2036   1752   1737 1
  2037   1877   1863 1
  2038   1878   1863 1
  2039   1335   1324 1
  2040   1336   1324 1
  2041   1337   1324 1
  2042   1464   1453 1
  2043   1465   1453 1
  2044   1466   1453 1
  2045   1496   1485 1
  2046   1497   1485 1
  2047   1498   1485 1
  2048   1653   1642 1
  2049   1654   1642 1
  2050   1655   1642 1
  2051   1782   1771 1
  2052   1783   1771 1
  2053   1784   1771 1
  2054   1814   1803 1
  2055   1815   1803 1
  2056   1816   1803 1
  2057   1569   1909 1
  2058   1591   2141 1
  2059   1917   1942 1
  2060   1950   1974 1
  2061   1982   2007 1
  2062   2047   2071 1
  2063   2079   2101 1
  2064   2109   2133 1
  2065   1909   1910 1
  2066   1909   1911 1
  2067   1909   1912 1
  2068   1912   1913 1
  2069   1913   1914 1
  2070   1914   1915 1
  2071   1914   1916 1
  2072   1915   1919 1
  2073   1916   1917 1
  2074   1916   1918 1
  2075   1918   1919 1
  2076   1919   1920 1
  2077   1920   1921 ar
  2078   1920   1930 ar
  2079   1921   1922 ar
  2080   1922   1923 ar
  2081   1923   1924 1
  2082   1923   1930 ar
  2083   1924   1925 2
  2084   1924   1926 am
  2085   1926   1927 1
  2086   1927   1928 2
  2087   1927   1929 2
  2088   1929   1930 1
  2089   1942   1943 1
  2090   1942   1944 1
  2091   1942   1945 1
  2092   1945   1946 1
  2093   1946   1947 1
  2094   1947   1948 1
  2095   1947   1949 1
  2096   1948   1952 1
  2097   1949   1950 1
  2098   1949   1951 1
  2099   1951   1952 1
  2100   1952   1953 1
  2101   1953   1954 am
  2102   1953   1961 1
  2103   1954   1955 2
  2104   1954   1956 am
  2105   1956   1957 am
  2106   1957   1958 2
  2107   1957   1959 1
  2108   1959   1960 1
  2109   1959   1961 2
  2110   1974   1975 1
  2111   1974   1976 1
  2112   1974   1977 1
  2113   1977   1978 1
  2114   1978   1979 1
  2115   1979   1980 1
  2116   1979   1981 1
  2117   1980   1984 1
  2118   1981   1982 1
  2119   1981   1983 1
  2120   1983   1984 1
  2121   1984   1985 1
  2122   1985   1986 ar
  2123   1985   1995 ar
  2124   1986   1987 ar
  2125   1987   1988 ar
  2126   1988   1989 1
  2127   1988   1995 ar
  2128   1989   1990 2
  2129   1989   1991 am
  2130   1991   1992 1
  2131   1992   1993 2
  2132   1992   1994 2
  2133   1994   1995 1
  2134   2007   2008 1
  2135   2007   2009 1
  2136   2007   2010 1
  2137   2010   2011 1
  2138   2011   2012 1
  2139   2012   2013 1
  2140   2012   2014 1
  2141   2013   2017 1
  2142   2014   2015 1
  2143   2014   2016 1
  2144   2016   2017 1
  2145   2017   2018 1
  2146   2018   2019 ar
  2147   2018   2027 ar
  2148   2019   2020 ar
  2149   2020   2021 ar
  2150   2021   2022 ar
  2151   2021   2027 ar
  2152   2022   2023 1
  2153   2022   2024 ar
  2154   2024   2025 ar
  2155   2025   2026 ar
  2156   2026   2027 ar
  2157   2039   2040 1
  2158   2039   2041 1
  2159   2039   2042 1
  2160   2042   2043 1
  2161   2043   2044 1
  2162   2044   2045 1
  2163   2044   2046 1
  2164   2045   2049 1
  2165   2046   2047 1
  2166   2046   2048 1
  2167   2048   2049 1
  2168   2049   2050 1
  2169   2050   2051 am
  2170   2050   2058 1
  2171   2051   2052 2
  2172   2051   2053 am
  2173   2053   2054 am
  2174   2054   2055 2
  2175   2054   2056 1
  2176   2056   2057 1
  2177   2056   2058 2
  2178   2071   2072 1
  2179   2071   2073 1
  2180   2071   2074 1
  2181   2074   2075 1
  2182   2075   2076 1
  2183   2076   2077 1
  2184   2076   2078 1
  2185   2077   2081 1
  2186   2078   2079 1
  2187   2078   2080 1
  2188   2080   2081 1
  2189   2081   2082 1
  2190   2082   2083 am
  2191   2082   2089 1
  2192   2083   2084 2
  2193   2083   2085 1
  2194   2085   2086 2
  2195   2086   2087 2
  2196   2086   2088 2
  2197   2088   2089 2
  2198   2101   2102 1
  2199   2101   2103 1
  2200   2101   2104 1
  2201   2104   2105 1
  2202   2105   2106 1
  2203   2106   2107 1
  2204   2106   2108 1
  2205   2107   2111 1
  2206   2108   2109 1
  2207   2108   2110 1
  2208   2110   2111 1
  2209   2111   2112 1
  2210   2112   2113 ar
  2211   2112   2121 ar
  2212   2113   2114 ar
  2213   2114   2115 ar
  2214   2115   2116 ar
  2215   2115   2121 ar
  2216   2116   2117 1
  2217   2116   2118 ar
  2218   2118   2119 ar
  2219   2119   2120 ar
  2220   2120   2121 ar
  2221   2133   2134 1
  2222   2133   2135 1
  2223   2133   2136 1
  2224   2136   2137 1
  2225   2137   2138 1
  2226   2138   2139 1
  2227   2138   2140 1
  2228   2139   2143 1
  2229   2140   2141 1
  2230   2140   2142 1
  2231   2142   2143 1
  2232   2143   2144 1
  2233   2144   2145 am
  2234   2144   2151 1
  2235   2145   2146 2
  2236   2145   2147 1
  2237   2147   2148 2
  2238   2148   2149 2
  2239   2148   2150 2
  2240   2150   2151 2
  2241   1931   1913 1
  2242   1932   1913 1
  2243   1933   1914 1
  2244   1934   1916 1
  2245   1935   1918 1
  2246   1936   1918 1
  2247   1937   1919 1
  2248   1938   1921 1
  2249   1939   1926 1
  2250   1962   1946 1
  2251   1963   1946 1
  2252   1964   1947 1
  2253   1965   1949 1
  2254   1966   1951 1
  2255   1967   1951 1
  2256   1968   1952 1
  2257   1969   1956 1
  2258   1970   1961 1
  2259   1996   1978 1
  2260   1997   1978 1
  2261   1998   1979 1
  2262   1999   1981 1
  2263   2000   1983 1
  2264   2001   1983 1
  2265   2002   1984 1
  2266   2003   1986 1
  2267   2004   1991 1
  2268   2028   2011 1
  2269   2029   2011 1
  2270   2030   2012 1
  2271   2031   2014 1
  2272   2032   2016 1
  2273   2033   2016 1
  2274   2034   2017 1
  2275   2035   2019 1
  2276   2036   2025 1
  2277   2059   2043 1
  2278   2060   2043 1
  2279   2061   2044 1
  2280   2062   2046 1
  2281   2063   2048 1
  2282   2064   2048 1
  2283   2065   2049 1
  2284   2066   2053 1
  2285   2067   2058 1
  2286   2090   2075 1
  2287   2091   2075 1
  2288   2092   2076 1
  2289   2093   2078 1
  2290   2094   2080 1
  2291   2095   2080 1
  2292   2096   2081 1
  2293   2097   2088 1
  2294   2098   2089 1
  2295   2122   2105 1
  2296   2123   2105 1
  2297   2124   2106 1
  2298   2125   2108 1
  2299   2126   2110 1
  2300   2127   2110 1
  2301   2128   2111 1
  2302   2129   2113 1
  2303   2130   2119 1
  2304   2152   2137 1
  2305   2153   2137 1
  2306   2154   2138 1
  2307   2155   2140 1
  2308   2156   2142 1
  2309   2157   2142 1
  2310   2158   2143 1
  2311   2159   2150 1
  2312   2160   2151 1
  2313   1940   1928 1
  2314   1941   1928 1
  2315   2005   1993 1
  2316   2006   1993 1
  2317   2099   2087 1
  2318   2100   2087 1
  2319   2161   2149 1
  2320   2162   2149 1
  2321   2037   2023 1
  2322   2038   2023 1
  2323   2131   2117 1
  2324   2132   2117 1
  2325   1971   1960 1
  2326   1972   1960 1
  2327   1973   1960 1
  2328   2068   2057 1
  2329   2069   2057 1
  2330   2070   2057 1
@<TRIPOS>MOLECULE
dna-seg-13-bp33
2100 2263 1 0 0
BIOPOLYMER
NO_CHARGES


@<TRIPOS>ATOM
      1 P          4.3021     9.3001  1406.2990 P.3      435 DA      0.0000
      2 OP1        4.3627    10.6517  1405.6319 O.co2    435 DA      0.0000
      3 OP2        5.4724     8.9509  1407.1299 O.co2    435 DA      0.0000
      4 O5'        2.8016     9.1909  1406.8298 O.3      435 DA      0.0000
      5 C5'        1.6560     9.3986  1406.0055 C.3      435 DA      0.0000
      6 C4'        0.5332     8.5195  1406.5278 C.3      435 DA      0.0000
      7 O4'        0.9139     7.1730  1406.5560 O.3      435 DA      0.0000
      8 C3'       -0.0383     8.8526  1407.8951 C.3      435 DA      0.0000
      9 O3'       -1.4105     9.2378  1407.8173 O.3      435 DA      0.0000
     10 C2'        0.2390     7.5922  1408.7239 C.3      435 DA      0.0000
     11 C1'        0.3518     6.5022  1407.7301 C.3      435 DA      0.0000
     12 N9         1.2101     5.3341  1407.9981 N.ar     435 DA      0.0000
     13 C8         2.5765     5.2496  1408.1133 C.ar     435 DA      0.0000
     14 N7         3.0265     4.0289  1408.2826 N.ar     435 DA      0.0000
     15 C5         1.8783     3.2442  1408.2456 C.ar     435 DA      0.0000
     16 C6         1.6871     1.8382  1408.3660 C.ar     435 DA      0.0000
     17 N6         2.6486     0.9437  1408.5577 N.pl3    435 DA      0.0000
     18 N1         0.3881     1.4061  1408.2679 N.ar     435 DA      0.0000
     19 C2        -0.6282     2.2970  1408.0788 C.ar     435 DA      0.0000
     20 N3        -0.5200     3.6163  1407.9709 N.ar     435 DA      0.0000
     21 C4         0.7612     4.0258  1408.0628 C.ar     435 DA      0.0000
     22 H5'        1.8881     9.1279  1404.9755 H        435 DA      0.0000
     23 H5''       1.3549    10.4452  1406.0515 H        435 DA      0.0000
     24 H4'       -0.2876     8.6000  1405.8151 H        435 DA      0.0000
     25 H3'        0.5318     9.6796  1408.3183 H        435 DA      0.0000
     26 H2'        1.1680     7.6982  1409.2841 H        435 DA      0.0000
     27 H2''      -0.5908     7.3981  1409.4034 H        435 DA      0.0000
     28 H1'       -0.6499     6.1497  1407.4840 H        435 DA      0.0000
     29 H8         3.2239     6.1129  1408.0684 H        435 DA      0.0000
     30 H2        -1.6247     1.8862  1408.0096 H        435 DA      0.0000
     31 H61        3.5687     1.2030  1408.8839 H        435 DA      0.0000
     32 H62        2.4536    -0.0296  1408.3709 H        435 DA      0.0000
     33 P         -2.1408    10.3318  1408.7735 P.3      436 DT      0.0000
     34 OP1       -3.0708    11.2393  1407.9762 O.co2    436 DT      0.0000
     35 OP2       -1.1691    11.0236  1409.5941 O.co2    436 DT      0.0000
     36 O5'       -3.2172     9.3913  1409.5872 O.3      436 DT      0.0000
     37 C5'       -3.8090     8.4008  1408.6421 C.3      436 DT      0.0000
     38 C4'       -3.8569     7.1162  1409.4298 C.3      436 DT      0.0000
     39 O4'       -2.5928     6.5221  1409.6218 O.3      436 DT      0.0000
     40 C3'       -4.4242     7.3230  1410.8464 C.3      436 DT      0.0000
     41 O3'       -5.7960     6.9734  1410.8481 O.3      436 DT      0.0000
     42 C2'       -3.5408     6.4597  1411.7437 C.3      436 DT      0.0000
     43 C1'       -2.8203     5.6050  1410.7791 C.3      436 DT      0.0000
     44 N1        -1.5267     5.0340  1411.1188 N.am     436 DT      0.0000
     45 C2        -1.4669     3.6508  1411.2568 C.2      436 DT      0.0000
     46 O2        -2.4908     2.9855  1411.1687 O.2      436 DT      0.0000
     47 N3        -0.2561     3.0806  1411.5108 N.am     436 DT      0.0000
     48 C4         0.8921     3.8100  1411.6309 C.2      436 DT      0.0000
     49 O4         1.9818     3.2048  1411.8861 O.2      436 DT      0.0000
     50 C5         0.8098     5.2312  1411.4593 C.2      436 DT      0.0000
     51 C7         2.0486     6.0788  1411.5468 C.3      436 DT      0.0000
     52 C6        -0.3865     5.7882  1411.2036 C.2      436 DT      0.0000
     53 H5'       -4.8110     8.7061  1408.3405 H        436 DT      0.0000
     54 H5''      -3.1696     8.2842  1407.7671 H        436 DT      0.0000
     55 H4'       -4.4956     6.4089  1408.9007 H        436 DT      0.0000
     56 H3'       -4.3165     8.3697  1411.1308 H        436 DT      0.0000
     57 H2'       -2.8466     7.0740  1412.3171 H        436 DT      0.0000
     58 H2''      -4.1524     5.8515  1412.4101 H        436 DT      0.0000
     59 H1'       -3.4841     4.8008  1410.4617 H        436 DT      0.0000
     60 H3        -0.2055     2.0773  1411.6145 H        436 DT      0.0000
     61 H6        -0.4502     6.8570  1411.0614 H        436 DT      0.0000
     62 H71        2.9091     5.4445  1411.7599 H        436 DT      0.0000
     63 H72        2.2034     6.5944  1410.5991 H        436 DT      0.0000
     64 H73        1.9315     6.8122  1412.3446 H        436 DT      0.0000
     65 P         -6.8610     7.1988  1411.9547 P.3      437 DT      0.0000
     66 OP1       -8.2857     7.1920  1411.3426 O.co2    437 DT      0.0000
     67 OP2       -6.5375     8.5049  1412.5847 O.co2    437 DT      0.0000
     68 O5'       -6.8126     5.8605  1412.8370 O.3      437 DT      0.0000
     69 C5'       -7.3396     4.7088  1412.1253 C.3      437 DT      0.0000
     70 C4'       -6.8628     3.4704  1412.8014 C.3      437 DT      0.0000
     71 O4'       -5.4498     3.3109  1412.7781 O.3      437 DT      0.0000
     72 C3'       -7.2985     3.3408  1414.2681 C.3      437 DT      0.0000
     73 O3'       -7.7396     2.0225  1414.5321 O.3      437 DT      0.0000
     74 C2'       -5.9633     3.6035  1415.0044 C.3      437 DT      0.0000
     75 C1'       -5.0721     2.7758  1414.1008 C.3      437 DT      0.0000
     76 N1        -3.6702     3.0039  1414.3985 N.am     437 DT      0.0000
     77 C2        -2.8200     1.9114  1414.4534 C.2      437 DT      0.0000
     78 O2        -3.2831     0.7856  1414.2649 O.2      437 DT      0.0000
     79 N3        -1.4982     2.1339  1414.7193 N.am     437 DT      0.0000
     80 C4        -1.0000     3.3835  1414.9263 C.2      437 DT      0.0000
     81 O4         0.2376     3.5136  1415.1496 O.2      437 DT      0.0000
     82 C5        -1.8832     4.5005  1414.8612 C.2      437 DT      0.0000
     83 C7        -1.4091     5.9090  1415.0711 C.3      437 DT      0.0000
     84 C6        -3.1782     4.2639  1414.6001 C.2      437 DT      0.0000
     85 H5'       -8.4292     4.7371  1412.1377 H        437 DT      0.0000
     86 H5''      -6.9852     4.7223  1411.0946 H        437 DT      0.0000
     87 H4'       -7.2909     2.6249  1412.2630 H        437 DT      0.0000
     88 H3'       -8.0558     4.0795  1414.5305 H        437 DT      0.0000
     89 H2'       -5.6897     4.6585  1415.0032 H        437 DT      0.0000
     90 H2''      -5.9837     3.2009  1416.0171 H        437 DT      0.0000
     91 H1'       -5.3182     1.7167  1414.1765 H        437 DT      0.0000
     92 H3        -0.8698     1.3444  1414.7637 H        437 DT      0.0000
     93 H6        -3.8583     5.1011  1414.5470 H        437 DT      0.0000
     94 H71       -0.3374     5.9064  1415.2701 H        437 DT      0.0000
     95 H72       -1.6107     6.4971  1414.1758 H        437 DT      0.0000
     96 H73       -1.9350     6.3467  1415.9195 H        437 DT      0.0000
     97 P         -9.0239     1.3561  1415.1401 P.3      438 DC      0.0000
     98 OP1       -9.8431     0.6572  1414.0721 O.co2    438 DC      0.0000
     99 OP2       -9.7115     2.4334  1415.8750 O.co2    438 DC      0.0000
    100 O5'       -8.2465     0.1841  1415.9661 O.3      438 DC      0.0000
    101 C5'       -7.3934    -0.4503  1414.9438 C.3      438 DC      0.0000
    102 C4'       -6.5813    -1.5049  1415.6403 C.3      438 DC      0.0000
    103 O4'       -5.2712    -1.0976  1415.8872 O.3      438 DC      0.0000
    104 C3'       -7.1884    -2.0413  1416.9318 C.3      438 DC      0.0000
    105 O3'       -7.3498    -3.4514  1416.8521 O.3      438 DC      0.0000
    106 C2'       -6.2255    -1.4805  1417.9806 C.3      438 DC      0.0000
    107 C1'       -4.9262    -1.3823  1417.2841 C.3      438 DC      0.0000
    108 N1        -4.0757    -0.2350  1417.6162 N.am     438 DC      0.0000
    109 C2        -2.7370    -0.5239  1417.8720 C.2      438 DC      0.0000
    110 O2        -2.3198    -1.6861  1417.8765 O.2      438 DC      0.0000
    111 N3        -1.9031     0.5320  1418.1459 N.2      438 DC      0.0000
    112 C4        -2.3562     1.8184  1418.1360 C.2      438 DC      0.0000
    113 N4        -1.4724     2.7708  1418.4128 N.pl3    438 DC      0.0000
    114 C5        -3.7125     2.0974  1417.8579 C.2      438 DC      0.0000
    115 C6        -4.5192     1.0493  1417.5932 C.2      438 DC      0.0000
    116 H5'       -8.0121    -0.9051  1414.1702 H        438 DC      0.0000
    117 H5''      -6.7320     0.2934  1414.4996 H        438 DC      0.0000
    118 H4'       -6.5183    -2.3496  1414.9544 H        438 DC      0.0000
    119 H3'       -8.1675    -1.5842  1417.0751 H        438 DC      0.0000
    120 H2'       -6.5554    -0.4982  1418.3185 H        438 DC      0.0000
    121 H2''      -6.1492    -2.1641  1418.8261 H        438 DC      0.0000
    122 H1'       -4.3696    -2.3159  1417.3651 H        438 DC      0.0000
    123 H5        -4.0888     3.1097  1417.8574 H        438 DC      0.0000
    124 H6        -5.5555     1.2376  1417.3541 H        438 DC      0.0000
    125 H41       -0.5128     2.5268  1418.6120 H        438 DC      0.0000
    126 H42       -1.7601     3.7389  1418.4241 H        438 DC      0.0000
    127 P         -8.2931    -4.3663  1417.8042 P.3      439 DA      0.0000
    128 OP1       -8.6529    -5.6076  1417.0104 O.co2    439 DA      0.0000
    129 OP2       -9.4904    -3.5732  1418.1497 O.co2    439 DA      0.0000
    130 O5'       -7.3384    -4.7046  1419.1012 O.3      439 DA      0.0000
    131 C5'       -6.0261    -5.2735  1418.8059 C.3      439 DA      0.0000
    132 C4'       -5.2331    -5.4355  1420.0612 C.3      439 DA      0.0000
    133 O4'       -4.2638    -4.4114  1420.3034 O.3      439 DA      0.0000
    134 C3'       -6.0463    -5.4275  1421.3664 C.3      439 DA      0.0000
    135 O3'       -5.2603    -6.0314  1422.3964 O.3      439 DA      0.0000
    136 C2'       -6.1584    -3.9048  1421.5810 C.3      439 DA      0.0000
    137 C1'       -4.6693    -3.5928  1421.3978 C.3      439 DA      0.0000
    138 N9        -4.4901    -2.1538  1421.3034 N.ar     439 DA      0.0000
    139 C8        -5.4087    -1.1476  1421.1876 C.ar     439 DA      0.0000
    140 N7        -4.9012     0.0718  1421.1690 N.ar     439 DA      0.0000
    141 C5        -3.5359    -0.1523  1421.2766 C.ar     439 DA      0.0000
    142 C6        -2.4289     0.7311  1421.3111 C.ar     439 DA      0.0000
    143 N6        -2.5171     2.0463  1421.2258 N.pl3    439 DA      0.0000
    144 N1        -1.2001     0.1504  1421.4436 N.ar     439 DA      0.0000
    145 C2        -1.0622    -1.2098  1421.5238 C.ar     439 DA      0.0000
    146 N3        -2.0501    -2.1012  1421.4940 N.ar     439 DA      0.0000
    147 C4        -3.2624    -1.5072  1421.3710 C.ar     439 DA      0.0000
    148 H5'       -6.1551    -6.2479  1418.3348 H        439 DA      0.0000
    149 H5''      -5.4912    -4.6117  1418.1246 H        439 DA      0.0000
    150 H4'       -4.7055    -6.3874  1420.0023 H        439 DA      0.0000
    151 H3'       -7.0199    -5.9042  1421.2528 H        439 DA      0.0000
    152 H2'       -6.7831    -3.4210  1420.8303 H        439 DA      0.0000
    153 H2''      -6.4937    -3.6684  1422.5909 H        439 DA      0.0000
    154 H1'       -4.1428    -3.9381  1422.2874 H        439 DA      0.0000
    155 H8        -6.4698    -1.3357  1421.1166 H        439 DA      0.0000
    156 H2        -0.0579    -1.5951  1421.6203 H        439 DA      0.0000
    157 H61       -1.8781     2.8074  1421.4059 H        439 DA      0.0000
    158 H62       -3.4240     2.3601  1420.9111 H        439 DA      0.0000
    159 P         -5.1493    -7.6215  1422.5368 P.3      440 DC      0.0000
    160 OP1       -5.5257    -8.3489  1421.2917 O.co2    440 DC      0.0000
    161 OP2       -6.0808    -7.9047  1423.6797 O.co2    440 DC      0.0000
    162 O5'       -3.6067    -7.8554  1422.8200 O.3      440 DC      0.0000
    163 C5'       -2.6338    -7.8893  1421.7323 C.3      440 DC      0.0000
    164 C4'       -1.3674    -7.3902  1422.4372 C.3      440 DC      0.0000
    165 O4'       -1.5682    -6.0311  1422.7492 O.3      440 DC      0.0000
    166 C3'       -1.0663    -8.1137  1423.7471 C.3      440 DC      0.0000
    167 O3'        0.2881    -8.6143  1423.8150 O.3      440 DC      0.0000
    168 C2'       -1.3833    -7.0706  1424.8293 C.3      440 DC      0.0000
    169 C1'       -1.0607    -5.8001  1424.1532 C.3      440 DC      0.0000
    170 N1        -1.7379    -4.5551  1424.5060 N.am     440 DC      0.0000
    171 C2        -0.9352    -3.4162  1424.4791 C.2      440 DC      0.0000
    172 O2         0.2709    -3.4618  1424.2722 O.2      440 DC      0.0000
    173 N3        -1.5357    -2.2223  1424.7322 N.2      440 DC      0.0000
    174 C4        -2.8658    -2.1118  1424.9656 C.2      440 DC      0.0000
    175 N4        -3.3377    -0.8881  1425.1965 N.pl3    440 DC      0.0000
    176 C5        -3.6769    -3.2799  1424.9721 C.2      440 DC      0.0000
    177 C6        -3.0774    -4.4543  1424.7227 C.2      440 DC      0.0000
    178 H5'       -2.5025    -8.9006  1421.3474 H        440 DC      0.0000
    179 H5''      -2.9247    -7.2073  1420.9333 H        440 DC      0.0000
    180 H4'       -0.5152    -7.4865  1421.7646 H        440 DC      0.0000
    181 H3'       -1.7562    -8.9509  1423.8530 H        440 DC      0.0000
    182 H2'       -2.4342    -7.1080  1425.1163 H        440 DC      0.0000
    183 H2''      -0.7431    -7.2147  1425.6996 H        440 DC      0.0000
    184 H1'        0.0185    -5.6476  1424.1399 H        440 DC      0.0000
    185 H5        -4.7370    -3.2238  1425.1707 H        440 DC      0.0000
    186 H6        -3.6791    -5.3507  1424.6930 H        440 DC      0.0000
    187 H41       -2.7122    -0.0953  1425.1855 H        440 DC      0.0000
    188 H42       -4.3212    -0.7530  1425.3827 H        440 DC      0.0000
    189 P          1.0743     8.4198  1426.7746 P.3      440 DG      0.0000
    190 OP1        1.1957     9.8997  1426.9533 O.co2    440 DG      0.0000
    191 OP2        0.0791     8.0297  1425.6897 O.co2    440 DG      0.0000
    192 O5'        2.5725     7.7704  1426.5673 O.3      440 DG      0.0000
    193 C5'        3.1779     7.0070  1427.6631 C.3      440 DG      0.0000
    194 C4'        3.9273     5.8376  1427.0288 C.3      440 DG      0.0000
    195 O4'        3.1270     4.6910  1426.9330 O.3      440 DG      0.0000
    196 C3'        4.4531     6.1125  1425.6225 C.3      440 DG      0.0000
    197 O3'        5.7623     5.5588  1425.3555 O.3      440 DG      0.0000
    198 C2'        3.3784     5.4798  1424.7202 C.3      440 DG      0.0000
    199 C1'        2.9973     4.2610  1425.5440 C.3      440 DG      0.0000
    200 N9         1.6099     3.8489  1425.2707 N.ar     440 DG      0.0000
    201 C8         0.5051     4.6516  1425.1140 C.ar     440 DG      0.0000
    202 N7        -0.6025     3.9939  1424.8956 N.ar     440 DG      0.0000
    203 C5        -0.2051     2.6623  1424.9204 C.ar     440 DG      0.0000
    204 C6        -0.9449     1.4599  1424.7640 C.2      440 DG      0.0000
    205 O6        -2.1645     1.3617  1424.5671 O.2      440 DG      0.0000
    206 N1        -0.1898     0.3163  1424.8509 N.am     440 DG      0.0000
    207 C2         1.1476     0.3372  1425.0716 C.2      440 DG      0.0000
    208 N2         1.7459    -0.8491  1425.1349 N.pl3    440 DG      0.0000
    209 N3         1.8905     1.4395  1425.2293 N.2      440 DG      0.0000
    210 C4         1.1489     2.5612  1425.1460 C.ar     440 DG      0.0000
    211 H5'        3.8704     7.6374  1428.2209 H        440 DG      0.0000
    212 H5''       2.3998     6.6321  1428.3280 H        440 DG      0.0000
    213 H4'        4.7795     5.6000  1427.6655 H        440 DG      0.0000
    214 H3'        4.4769     7.1889  1425.4520 H        440 DG      0.0000
    215 H2'        2.5298     6.1488  1424.5775 H        440 DG      0.0000
    216 H2''       3.8031     5.1824  1423.7614 H        440 DG      0.0000
    217 H1'        3.6822     3.4382  1425.3388 H        440 DG      0.0000
    218 H8         0.5486     5.7295  1425.1668 H        440 DG      0.0000
    219 H1        -0.6495    -0.5768  1424.7461 H        440 DG      0.0000
    220 H21        1.2050    -1.6943  1425.0198 H        440 DG      0.0000
    221 H22        2.7411    -0.9047  1425.2981 H        440 DG      0.0000
    222 P          6.0449     5.1499  1423.8320 P.3      439 DT      0.0000
    223 OP1        7.4959     5.2314  1423.4411 O.co2    439 DT      0.0000
    224 OP2        5.2409     6.1814  1423.1315 O.co2    439 DT      0.0000
    225 O5'        5.5241     3.6403  1423.7011 O.3      439 DT      0.0000
    226 C5'        6.4982     2.5814  1423.9687 C.3      439 DT      0.0000
    227 C4'        6.0763     1.3409  1423.2117 C.3      439 DT      0.0000
    228 O4'        4.6715     1.1620  1423.1844 O.3      439 DT      0.0000
    229 C3'        6.5199     1.3505  1421.7570 C.3      439 DT      0.0000
    230 O3'        6.9411     0.0610  1421.2619 O.3      439 DT      0.0000
    231 C2'        5.2919     1.8579  1421.0341 C.3      439 DT      0.0000
    232 C1'        4.2206     1.1120  1421.8122 C.3      439 DT      0.0000
    233 N1         2.9748     1.8802  1421.6609 N.am     439 DT      0.0000
    234 C2         1.7906     1.1580  1421.7677 C.2      439 DT      0.0000
    235 O2         1.8163    -0.0533  1421.9574 O.2      439 DT      0.0000
    236 N3         0.6213     1.8555  1421.6475 N.am     439 DT      0.0000
    237 C4         0.6032     3.2006  1421.4300 C.2      439 DT      0.0000
    238 O4        -0.5368     3.7643  1421.3324 O.2      439 DT      0.0000
    239 C5         1.8319     3.9129  1421.3236 C.2      439 DT      0.0000
    240 C7         1.8239     5.3971  1421.0946 C.3      439 DT      0.0000
    241 C6         2.9710     3.2265  1421.4453 C.2      439 DT      0.0000
    242 H5'        7.4865     2.8977  1423.6350 H        439 DT      0.0000
    243 H5''       6.5232     2.3678  1425.0373 H        439 DT      0.0000
    244 H4'        6.5222     0.4742  1423.6996 H        439 DT      0.0000
    245 H3'        7.3323     2.0667  1421.6330 H        439 DT      0.0000
    246 H2'        5.1832     2.9386  1421.1257 H        439 DT      0.0000
    247 H2''       5.2996     1.5526  1419.9877 H        439 DT      0.0000
    248 H1'        4.1075     0.0862  1421.4616 H        439 DT      0.0000
    249 H3        -0.2553     1.3594  1421.7222 H        439 DT      0.0000
    250 H6         3.9123     3.7508  1421.3712 H        439 DT      0.0000
    251 H71        0.7946     5.7491  1421.0259 H        439 DT      0.0000
    252 H72        2.3233     5.8954  1421.9255 H        439 DT      0.0000
    253 H73        2.3483     5.6245  1420.1665 H        439 DT      0.0000
    254 P          8.3896     0.2860  1420.4835 P.3      438 DG      0.0000
    255 OP1        9.5772     0.0353  1421.3547 O.co2    438 DG      0.0000
    256 OP2        8.2027     1.7015  1420.0779 O.co2    438 DG      0.0000
    257 O5'        8.3246    -0.8897  1419.4027 O.3      438 DG      0.0000
    258 C5'        8.6157    -2.2458  1419.8261 C.3      438 DG      0.0000
    259 C4'        7.4091    -3.0610  1419.3784 C.3      438 DG      0.0000
    260 O4'        6.2228    -2.3415  1419.6491 O.3      438 DG      0.0000
    261 C3'        7.4026    -3.4125  1417.8907 C.3      438 DG      0.0000
    262 O3'        7.3058    -4.8101  1417.6822 O.3      438 DG      0.0000
    263 C2'        6.2675    -2.5852  1417.3140 C.3      438 DG      0.0000
    264 C1'        5.3499    -2.4051  1418.5001 C.3      438 DG      0.0000
    265 N9         4.5707    -1.1702  1418.3765 N.ar     438 DG      0.0000
    266 C8         5.0264     0.1079  1418.2177 C.ar     438 DG      0.0000
    267 N7         4.0717     1.0026  1418.1396 N.ar     438 DG      0.0000
    268 C5         2.9016     0.2614  1418.2771 C.ar     438 DG      0.0000
    269 C6         1.5342     0.6434  1418.2866 C.2      438 DG      0.0000
    270 O6         1.0817     1.7794  1418.1875 O.2      438 DG      0.0000
    271 N1         0.6559    -0.3921  1418.4356 N.am     438 DG      0.0000
    272 C2         1.0768    -1.6932  1418.5685 C.2      438 DG      0.0000
    273 N2         0.1142    -2.6057  1418.7041 N.pl3    438 DG      0.0000
    274 N3         2.3439    -2.1193  1418.5727 N.2      438 DG      0.0000
    275 C4         3.2026    -1.0822  1418.4221 C.ar     438 DG      0.0000
    276 H5'        9.5244    -2.6107  1419.3474 H        438 DG      0.0000
    277 H5''       8.7179    -2.2883  1420.9105 H        438 DG      0.0000
    278 H4'        7.3879    -3.9880  1419.9514 H        438 DG      0.0000
    279 H3'        8.3377    -3.0644  1417.4521 H        438 DG      0.0000
    280 H2'        6.6288    -1.6243  1416.9476 H        438 DG      0.0000
    281 H2''       5.7614    -3.1321  1416.5184 H        438 DG      0.0000
    282 H1'        4.6807    -3.2611  1418.5871 H        438 DG      0.0000
    283 H8         6.0756     0.3578  1418.1616 H        438 DG      0.0000
    284 H1        -0.3346    -0.1950  1418.4484 H        438 DG      0.0000
    285 H21       -0.8550    -2.3212  1418.7051 H        438 DG      0.0000
    286 H22        0.3540    -3.5815  1418.8059 H        438 DG      0.0000
    287 P          6.3771    -5.7504  1416.8159 P.3      437 DA      0.0000
    288 OP1        6.0426    -7.0274  1417.5972 O.co2    437 DA      0.0000
    289 OP2        7.1641    -6.0718  1415.6232 O.co2    437 DA      0.0000
    290 O5'        4.9642    -4.9583  1416.6411 O.3      437 DA      0.0000
    291 C5'        4.0718    -5.1766  1417.7975 C.3      437 DA      0.0000
    292 C4'        2.8485    -5.8844  1417.2697 C.3      437 DA      0.0000
    293 O4'        1.7738    -5.0070  1417.0475 O.3      437 DA      0.0000
    294 C3'        3.0925    -6.5764  1415.9292 C.3      437 DA      0.0000
    295 O3'        2.4789    -7.8409  1415.8540 O.3      437 DA      0.0000
    296 C2'        2.6538    -5.5185  1414.9326 C.3      437 DA      0.0000
    297 C1'        1.6827    -4.6282  1415.6565 C.3      437 DA      0.0000
    298 N9         1.9793    -3.2032  1415.4310 N.ar     437 DA      0.0000
    299 C8         3.2001    -2.5915  1415.2446 C.ar     437 DA      0.0000
    300 N7         3.1318    -1.2948  1415.0487 N.ar     437 DA      0.0000
    301 C5         1.7705    -1.0314  1415.1356 C.ar     437 DA      0.0000
    302 C6         1.0427     0.1768  1415.0300 C.ar     437 DA      0.0000
    303 N6         1.6008     1.3555  1414.8175 N.pl3    437 DA      0.0000
    304 N1        -0.3095     0.0739  1415.1537 N.ar     437 DA      0.0000
    305 C2        -0.9132    -1.1305  1415.3782 C.ar     437 DA      0.0000
    306 N3        -0.2878    -2.3002  1415.4941 N.ar     437 DA      0.0000
    307 C4         1.0554    -2.1851  1415.3580 C.ar     437 DA      0.0000
    308 H5'        4.5698    -5.7935  1418.5456 H        437 DA      0.0000
    309 H5''       3.7880    -4.2191  1418.2342 H        437 DA      0.0000
    310 H4'        2.5399    -6.6350  1417.9974 H        437 DA      0.0000
    311 H3'        4.1673    -6.7182  1415.8161 H        437 DA      0.0000
    312 H2'        2.1691    -5.9863  1414.0758 H        437 DA      0.0000
    313 H2''       3.5154    -4.9384  1414.6021 H        437 DA      0.0000
    314 H1'        0.6753    -4.8399  1415.2983 H        437 DA      0.0000
    315 H8         4.1345    -3.1330  1415.2585 H        437 DA      0.0000
    316 H2        -1.9893    -1.1344  1415.4695 H        437 DA      0.0000
    317 H61        1.1590     2.2073  1415.1329 H        437 DA      0.0000
    318 H62        2.4847     1.4056  1414.3313 H        437 DA      0.0000
    319 P          1.7310    -8.5718  1414.6694 P.3      436 DA      0.0000
    320 OP1        1.0000    -9.8440  1415.1893 O.co2    436 DA      0.0000
    321 OP2        2.8240    -8.9866  1413.7358 O.co2    436 DA      0.0000
    322 O5'        0.5907    -7.6079  1414.1667 O.3      436 DA      0.0000
    323 C5'       -0.7650    -7.7961  1414.6226 C.3      436 DA      0.0000
    324 C4'       -1.6149    -6.7595  1413.9207 C.3      436 DA      0.0000
    325 O4'       -1.0089    -5.5042  1413.7999 O.3      436 DA      0.0000
    326 C3'       -2.0420    -7.1735  1412.5131 C.3      436 DA      0.0000
    327 O3'       -3.4693    -7.3625  1412.4817 O.3      436 DA      0.0000
    328 C2'       -1.4310    -6.0975  1411.6136 C.3      436 DA      0.0000
    329 C1'       -1.3599    -4.8997  1412.5113 C.3      436 DA      0.0000
    330 N9        -0.3184    -3.9225  1412.2118 N.ar     436 DA      0.0000
    331 C8         1.0332    -4.1188  1412.0170 C.ar     436 DA      0.0000
    332 N7         1.7061    -3.0087  1411.8116 N.ar     436 DA      0.0000
    333 C5         0.7495    -2.0150  1411.8861 C.ar     436 DA      0.0000
    334 C6         0.8352    -0.6110  1411.7526 C.ar     436 DA      0.0000
    335 N6         1.9675     0.0419  1411.5094 N.pl3    436 DA      0.0000
    336 N1        -0.3502     0.0633  1411.9015 N.ar     436 DA      0.0000
    337 C2        -1.5116    -0.5705  1412.1540 C.ar     436 DA      0.0000
    338 N3        -1.6683    -1.8904  1412.2928 N.ar     436 DA      0.0000
    339 C4        -0.4988    -2.5520  1412.1456 C.ar     436 DA      0.0000
    340 H5'       -1.1100    -8.7981  1414.3674 H        436 DA      0.0000
    341 H5''      -0.8172    -7.6496  1415.7014 H        436 DA      0.0000
    342 H4'       -2.5218    -6.6280  1414.5108 H        436 DA      0.0000
    343 H3'       -1.5663    -8.1255  1412.2781 H        436 DA      0.0000
    344 H2'       -0.4376    -6.3905  1411.2737 H        436 DA      0.0000
    345 H2''      -2.0817    -5.8978  1410.7622 H        436 DA      0.0000
    346 H1'       -2.3328    -4.4119  1412.5725 H        436 DA      0.0000
    347 H8         1.4957    -5.0947  1412.0320 H        436 DA      0.0000
    348 H2        -2.3950     0.0427  1412.2530 H        436 DA      0.0000
    349 H61        1.9802     1.0081  1411.8035 H        436 DA      0.0000
    350 H62        2.7594    -0.3973  1411.0622 H        436 DA      0.0000
    351 P         -4.1689    -7.7921  1411.0967 P.3      435 DT      0.0000
    352 OP1       -5.5812    -8.2872  1411.1548 O.co2    435 DT      0.0000
    353 OP2       -3.1658    -8.7749  1410.5841 O.co2    435 DT      0.0000
    354 O5'       -4.2318    -6.2823  1410.3936 O.3      435 DT      0.0000
    355 C5'       -4.6235    -5.3063  1411.4059 C.3      435 DT      0.0000
    356 C4'       -5.2004    -4.1077  1410.7230 C.3      435 DT      0.0000
    357 O4'       -4.2816    -3.0718  1410.5425 O.3      435 DT      0.0000
    358 C3'       -5.8119    -4.4013  1409.3617 C.3      435 DT      0.0000
    359 O3'       -6.9889    -3.6291  1409.0944 O.3      435 DT      0.0000
    360 C2'       -4.6059    -4.0828  1408.4684 C.3      435 DT      0.0000
    361 C1'       -4.0761    -2.8174  1409.1084 C.3      435 DT      0.0000
    362 N1        -2.6268    -2.6678  1408.8784 N.am     435 DT      0.0000
    363 C2        -2.1283    -1.3826  1408.7568 C.2      435 DT      0.0000
    364 O2        -2.8753    -0.4035  1408.7936 O.2      435 DT      0.0000
    365 N3        -0.7786    -1.2306  1408.5894 N.am     435 DT      0.0000
    366 C4         0.0646    -2.2966  1408.5408 C.2      435 DT      0.0000
    367 O4         1.2964    -2.0639  1408.3553 O.2      435 DT      0.0000
    368 C5        -0.4658    -3.6087  1408.6893 C.2      435 DT      0.0000
    369 C7         0.4401    -4.8158  1408.6371 C.3      435 DT      0.0000
    370 C6        -1.7852    -3.7400  1408.8622 C.2      435 DT      0.0000
    371 H5'       -5.3700    -5.7451  1412.0680 H        435 DT      0.0000
    372 H5''      -3.7492    -5.0108  1411.9859 H        435 DT      0.0000
    373 H4'       -5.9979    -3.7253  1411.3600 H        435 DT      0.0000
    374 H3'       -6.0484    -5.4628  1409.2897 H        435 DT      0.0000
    375 H2'       -3.8664    -4.8830  1408.4989 H        435 DT      0.0000
    376 H2''      -4.9250    -3.8919  1407.4437 H        435 DT      0.0000
    377 H1'       -4.6276    -1.9384  1408.7744 H        435 DT      0.0000
    378 H3        -0.3976    -0.2996  1408.4992 H        435 DT      0.0000
    379 H6        -2.1982    -4.7292  1408.9936 H        435 DT      0.0000
    380 H71        0.4274    -5.2371  1407.6320 H        435 DT      0.0000
    381 H72        0.0899    -5.5636  1409.3487 H        435 DT      0.0000
    382 H73        1.4569    -4.5184  1408.8937 H        435 DT      0.0000
    383 P          2.3354    -9.7431  1428.8161 P.3      441 DG      0.0000
    384 OP1        1.9536   -11.1769  1428.8146 O.co2    441 DG      0.0000
    385 OP2        1.4598    -9.0524  1429.8718 O.co2    441 DG      0.0000
    386 O5'        3.8813    -9.4111  1428.9945 O.3      441 DG      0.0000
    387 C5'        4.8498    -9.0299  1427.9945 C.3      441 DG      0.0000
    388 C4'        5.5843    -7.8029  1428.4933 C.3      441 DG      0.0000
    389 O4'        4.9645    -6.6064  1428.0741 O.3      441 DG      0.0000
    390 C3'        5.8132    -7.6718  1429.9855 C.3      441 DG      0.0000
    391 O3'        7.2182    -7.4712  1430.2975 O.3      441 DG      0.0000
    392 C2'        4.9329    -6.5108  1430.4074 C.3      441 DG      0.0000
    393 C1'        4.8150    -5.6812  1429.1517 C.3      441 DG      0.0000
    394 N9         3.5129    -4.9907  1429.1227 N.ar     441 DG      0.0000
    395 C8         2.2538    -5.4935  1429.3516 C.ar     441 DG      0.0000
    396 N7         1.2947    -4.6000  1429.2618 N.ar     441 DG      0.0000
    397 C5         1.9674    -3.4228  1428.9448 C.ar     441 DG      0.0000
    398 C6         1.5048    -2.1029  1428.7189 C.2      441 DG      0.0000
    399 O6         0.3459    -1.6872  1428.7402 O.2      441 DG      0.0000
    400 N1         2.4789    -1.1846  1428.4374 N.am     441 DG      0.0000
    401 C2         3.7367    -1.4854  1428.3767 C.2      441 DG      0.0000
    402 N2         4.4281    -0.4544  1428.0800 N.pl3    441 DG      0.0000
    403 N3         4.2893    -2.7530  1428.5855 N.2      441 DG      0.0000
    404 C4         3.3285    -3.6477  1428.8581 C.ar     441 DG      0.0000
    405 H5'        5.5568    -9.8442  1427.8358 H        441 DG      0.0000
    406 H5''       4.3404    -8.7981  1427.0591 H        441 DG      0.0000
    407 H4'        6.5700    -7.8211  1428.0286 H        441 DG      0.0000
    408 H3'        5.4656    -8.5791  1430.4795 H        441 DG      0.0000
    409 H2'        3.9546    -6.8629  1430.7344 H        441 DG      0.0000
    410 H2''       5.4143    -5.9364  1431.1989 H        441 DG      0.0000
    411 H1'        5.6203    -4.9473  1429.1198 H        441 DG      0.0000
    412 H8         2.0694    -6.5319  1429.5846 H        441 DG      0.0000
    413 H1         2.2041    -0.2274  1428.2690 H        441 DG      0.0000
    414 H21        3.9720     0.4351  1427.9356 H        441 DG      0.0000
    415 H22        5.4313    -0.5280  1427.9895 H        441 DG      0.0000
    416 P          7.7188    -7.0227  1431.7260 P.3      442 DT      0.0000
    417 OP1        8.9669    -7.6944  1432.2377 O.co2    442 DT      0.0000
    418 OP2        6.5945    -7.5346  1432.6447 O.co2    442 DT      0.0000
    419 O5'        7.7327    -5.4730  1431.7546 O.3      442 DT      0.0000
    420 C5'        8.9473    -4.6866  1431.6106 C.3      442 DT      0.0000
    421 C4'        8.4793    -3.2474  1431.6681 C.3      442 DT      0.0000
    422 O4'        7.1013    -3.1237  1431.3930 O.3      442 DT      0.0000
    423 C3'        8.6727    -2.5313  1432.9808 C.3      442 DT      0.0000
    424 O3'        9.6165    -1.4667  1432.7926 O.3      442 DT      0.0000
    425 C2'        7.2950    -1.9981  1433.3731 C.3      442 DT      0.0000
    426 C1'        6.6403    -1.8916  1432.0203 C.3      442 DT      0.0000
    427 N1         5.1826    -1.9696  1432.1170 N.am     442 DT      0.0000
    428 C2         4.4751    -0.8149  1431.9190 C.2      442 DT      0.0000
    429 O2         5.0203     0.2604  1431.6809 O.2      442 DT      0.0000
    430 N3         3.1111    -0.8977  1432.0001 N.am     442 DT      0.0000
    431 C4         2.4590    -2.0544  1432.2560 C.2      442 DT      0.0000
    432 O4         1.2035    -1.9744  1432.3013 O.2      442 DT      0.0000
    433 C5         3.2160    -3.2533  1432.4557 C.2      442 DT      0.0000
    434 C7         2.5337    -4.5528  1432.7356 C.3      442 DT      0.0000
    435 C6         4.5496    -3.1629  1432.3742 C.2      442 DT      0.0000
    436 H5'        9.6413    -4.8982  1432.4240 H        442 DT      0.0000
    437 H5''       9.4184    -4.8922  1430.6494 H        442 DT      0.0000
    438 H4'        9.0217    -2.6912  1430.9036 H        442 DT      0.0000
    439 H3'        9.0362    -3.2262  1433.7379 H        442 DT      0.0000
    440 H2'        6.7646    -2.6952  1434.0219 H        442 DT      0.0000
    441 H2''       7.3777    -1.0178  1433.8423 H        442 DT      0.0000
    442 H1'        6.9682    -1.0066  1431.4750 H        442 DT      0.0000
    443 H3         2.5677    -0.0576  1431.8626 H        442 DT      0.0000
    444 H6         5.1452    -4.0529  1432.5146 H        442 DT      0.0000
    445 H71        2.5206    -5.1593  1431.8301 H        442 DT      0.0000
    446 H72        1.5107    -4.3631  1433.0604 H        442 DT      0.0000
    447 H73        3.0717    -5.0839  1433.5209 H        442 DT      0.0000
    448 P         10.5971    -1.2516  1434.0726 P.3      443 DG      0.0000
    449 OP1       11.8921    -0.8877  1433.3575 O.co2    443 DG      0.0000
    450 OP2       10.6659    -2.4908  1434.8261 O.co2    443 DG      0.0000
    451 O5'        9.7910     0.0302  1434.6821 O.3      443 DG      0.0000
    452 C5'        9.4843     0.9788  1433.5915 C.3      443 DG      0.0000
    453 C4'        8.4736     1.9581  1434.1115 C.3      443 DG      0.0000
    454 O4'        7.1241     1.6211  1433.9310 O.3      443 DG      0.0000
    455 C3'        8.6594     2.2560  1435.6196 C.3      443 DG      0.0000
    456 O3'        8.7771     3.6906  1435.7784 O.3      443 DG      0.0000
    457 C2'        7.4599     1.6026  1436.2722 C.3      443 DG      0.0000
    458 C1'        6.3967     1.7548  1435.1906 C.3      443 DG      0.0000
    459 N9         5.3182     0.7747  1435.3601 N.ar     443 DG      0.0000
    460 C8         5.4091    -0.5479  1435.6963 C.ar     443 DG      0.0000
    461 N7         4.2550    -1.1722  1435.7821 N.ar     443 DG      0.0000
    462 C5         3.3372    -0.1776  1435.4521 C.ar     443 DG      0.0000
    463 C6         1.9166    -0.2154  1435.3577 C.2      443 DG      0.0000
    464 O6         1.1614    -1.1799  1435.5501 O.2      443 DG      0.0000
    465 N1         1.3368     0.9868  1435.0227 N.am     443 DG      0.0000
    466 C2         2.0781     2.1068  1434.7989 C.2      443 DG      0.0000
    467 N2         1.3459     3.1851  1434.4901 N.pl3    443 DG      0.0000
    468 N3         3.4045     2.1918  1434.8699 N.2      443 DG      0.0000
    469 C4         3.9730     1.0184  1435.1965 C.ar     443 DG      0.0000
    470 H5'       10.3905     1.5047  1433.2910 H        443 DG      0.0000
    471 H5''       9.0709     0.4398  1432.7391 H        443 DG      0.0000
    472 H4'        8.6393     2.8957  1433.5810 H        443 DG      0.0000
    473 H3'        9.5714     1.7760  1435.9743 H        443 DG      0.0000
    474 H2'        7.6519     0.5531  1436.4951 H        443 DG      0.0000
    475 H2''       7.1711     2.1415  1437.1746 H        443 DG      0.0000
    476 H1'        5.9744     2.7579  1435.2495 H        443 DG      0.0000
    477 H8         6.3532    -1.0402  1435.8770 H        443 DG      0.0000
    478 H1         0.3315     1.0400  1434.9403 H        443 DG      0.0000
    479 H21        0.3396     3.1148  1434.4399 H        443 DG      0.0000
    480 H22        1.8002     4.0685  1434.3074 H        443 DG      0.0000
    481 P          9.0901     4.3372  1437.1669 P.3      444 DA      0.0000
    482 OP1       10.5316     4.5073  1437.5222 O.co2    444 DA      0.0000
    483 OP2        8.5145     3.1795  1438.0626 O.co2    444 DA      0.0000
    484 O5'        8.0925     5.5445  1437.4160 O.3      444 DA      0.0000
    485 C5'        7.4079     6.2739  1436.3869 C.3      444 DA      0.0000
    486 C4'        5.9676     6.3798  1436.8613 C.3      444 DA      0.0000
    487 O4'        5.3267     5.1254  1436.7709 O.3      444 DA      0.0000
    488 C3'        5.7611     6.8821  1438.2903 C.3      444 DA      0.0000
    489 O3'        4.7432     7.9030  1438.3426 O.3      444 DA      0.0000
    490 C2'        5.3596     5.5977  1439.0258 C.3      444 DA      0.0000
    491 C1'        4.4945     4.9619  1437.9482 C.3      444 DA      0.0000
    492 N9         4.2149     3.5407  1438.1766 N.ar     444 DA      0.0000
    493 C8         5.0737     2.5005  1438.3923 C.ar     444 DA      0.0000
    494 N7         4.4760     1.3415  1438.5573 N.ar     444 DA      0.0000
    495 C5         3.1287     1.6392  1438.4171 C.ar     444 DA      0.0000
    496 C6         1.9795     0.8202  1438.4651 C.ar     444 DA      0.0000
    497 N6         1.9995    -0.4966  1438.6848 N.pl3    444 DA      0.0000
    498 N1         0.7928     1.4700  1438.2753 N.ar     444 DA      0.0000
    499 C2         0.7497     2.8048  1438.0575 C.ar     444 DA      0.0000
    500 N3         1.7882     3.6376  1437.9993 N.ar     444 DA      0.0000
    501 C4         2.9477     2.9810  1438.1861 C.ar     444 DA      0.0000
    502 H5'        7.4593     5.7369  1435.4397 H        444 DA      0.0000
    503 H5''       7.8418     7.2680  1436.2791 H        444 DA      0.0000
    504 H4'        5.4484     7.0654  1436.1915 H        444 DA      0.0000
    505 H3'        6.6987     7.2665  1438.6917 H        444 DA      0.0000
    506 H2'        6.2242     4.9809  1439.2712 H        444 DA      0.0000
    507 H2''       4.7735     5.8231  1439.9166 H        444 DA      0.0000
    508 H1'        3.5635     5.5171  1437.8336 H        444 DA      0.0000
    509 H8         6.1466     2.6196  1438.4244 H        444 DA      0.0000
    510 H2        -0.2283     3.2405  1437.9161 H        444 DA      0.0000
    511 H61        2.8130    -1.0873  1438.5874 H        444 DA      0.0000
    512 H62        1.1554    -1.0239  1438.5133 H        444 DA      0.0000
    513 P          4.7409     9.0842  1439.4840 P.3      445 DA      0.0000
    514 OP1        4.8659    10.4314  1438.8170 O.co2    445 DA      0.0000
    515 OP2        5.8932     8.6796  1440.3150 O.co2    445 DA      0.0000
    516 O5'        3.2369     9.0468  1440.0149 O.3      445 DA      0.0000
    517 C5'        2.1025     9.3089  1439.1905 C.3      445 DA      0.0000
    518 C4'        0.9390     8.4844  1439.7128 C.3      445 DA      0.0000
    519 O4'        1.2551     7.1212  1439.7410 O.3      445 DA      0.0000
    520 C3'        0.3841     8.8443  1441.0802 C.3      445 DA      0.0000
    521 O3'       -0.9682     9.2946  1441.0023 O.3      445 DA      0.0000
    522 C2'        0.6010     7.5721  1441.9089 C.3      445 DA      0.0000
    523 C1'        0.6616     6.4780  1440.9151 C.3      445 DA      0.0000
    524 N9         1.4632     5.2702  1441.1831 N.ar     445 DA      0.0000
    525 C8         2.8240     5.1207  1441.2983 C.ar     445 DA      0.0000
    526 N7         3.2153     3.8799  1441.4676 N.ar     445 DA      0.0000
    527 C5         2.0310     3.1509  1441.4306 C.ar     445 DA      0.0000
    528 C6         1.7729     1.7556  1441.5511 C.ar     445 DA      0.0000
    529 N6         2.6906     0.8162  1441.7427 N.pl3    445 DA      0.0000
    530 N1         0.4548     1.3860  1441.4529 N.ar     445 DA      0.0000
    531 C2        -0.5179     2.3243  1441.2638 C.ar     445 DA      0.0000
    532 N3        -0.3469     3.6370  1441.1560 N.ar     445 DA      0.0000
    533 C4         0.9524     3.9849  1441.2478 C.ar     445 DA      0.0000
    534 H5'        2.3215     9.0274  1438.1605 H        445 DA      0.0000
    535 H5''       1.8517    10.3686  1439.2365 H        445 DA      0.0000
    536 H4'        0.1230     8.6040  1439.0001 H        445 DA      0.0000
    537 H3'        0.9930     9.6432  1441.5034 H        445 DA      0.0000
    538 H2'        1.5339     7.6337  1442.4692 H        445 DA      0.0000
    539 H2''      -0.2371     7.4178  1442.5885 H        445 DA      0.0000
    540 H1'       -0.3557     6.1737  1440.6690 H        445 DA      0.0000
    541 H8         3.5118     5.9521  1441.2535 H        445 DA      0.0000
    542 H2        -1.5328     1.9616  1441.1946 H        445 DA      0.0000
    543 H61        3.6220     1.0313  1442.0689 H        445 DA      0.0000
    544 H62        2.4494    -0.1466  1441.5559 H        445 DA      0.0000
    545 P         -1.6455    10.4221  1441.9585 P.3      446 DT      0.0000
    546 OP1       -2.5310    11.3730  1441.1612 O.co2    446 DT      0.0000
    547 OP2       -0.6418    11.0668  1442.7791 O.co2    446 DT      0.0000
    548 O5'       -2.7655     9.5341  1442.7723 O.3      446 DT      0.0000
    549 C5'       -3.4039     8.5729  1441.8272 C.3      446 DT      0.0000
    550 C4'       -3.5130     7.2921  1442.6149 C.3      446 DT      0.0000
    551 O4'       -2.2787     6.6383  1442.8069 O.3      446 DT      0.0000
    552 C3'       -4.0698     7.5257  1444.0315 C.3      446 DT      0.0000
    553 O3'       -5.4567     7.2420  1444.0331 O.3      446 DT      0.0000
    554 C2'       -3.2286     6.6213  1444.9287 C.3      446 DT      0.0000
    555 C1'       -2.5497     5.7332  1443.9641 C.3      446 DT      0.0000
    556 N1        -1.2848     5.1012  1444.3039 N.am     446 DT      0.0000
    557 C2        -1.2911     3.7166  1444.4418 C.2      446 DT      0.0000
    558 O2        -2.3456     3.1009  1444.3538 O.2      446 DT      0.0000
    559 N3        -0.1088     3.0894  1444.6958 N.am     446 DT      0.0000
    560 C4         1.0728     3.7631  1444.8159 C.2      446 DT      0.0000
    561 O4         2.1325     3.1066  1445.0711 O.2      446 DT      0.0000
    562 C5         1.0585     5.1866  1444.6444 C.2      446 DT      0.0000
    563 C7         2.3363     5.9741  1444.7319 C.3      446 DT      0.0000
    564 C6        -0.1099     5.8001  1444.3886 C.2      446 DT      0.0000
    565 H5'       -4.3901     8.9258  1441.5255 H        446 DT      0.0000
    566 H5''      -2.7708     8.4260  1440.9521 H        446 DT      0.0000
    567 H4'       -4.1847     6.6160  1442.0858 H        446 DT      0.0000
    568 H3'       -3.9122     8.5661  1444.3158 H        446 DT      0.0000
    569 H2'       -2.5058     7.2017  1445.5021 H        446 DT      0.0000
    570 H2''      -3.8684     6.0429  1445.5951 H        446 DT      0.0000
    571 H1'       -3.2511     4.9615  1443.6468 H        446 DT      0.0000
    572 H3        -0.1062     2.0847  1444.7995 H        446 DT      0.0000
    573 H6        -0.1225     6.8706  1444.2464 H        446 DT      0.0000
    574 H71        3.1656     5.2995  1444.9449 H        446 DT      0.0000
    575 H72        2.5155     6.4818  1443.7841 H        446 DT      0.0000
    576 H73        2.2543     6.7123  1445.5297 H        446 DT      0.0000
    577 P         -6.5097     7.5180  1445.1398 P.3      447 DT      0.0000
    578 OP1       -7.9331     7.5791  1444.5277 O.co2    447 DT      0.0000
    579 OP2       -6.1243     8.8071  1445.7697 O.co2    447 DT      0.0000
    580 O5'       -6.5253     6.1789  1446.0221 O.3      447 DT      0.0000
    581 C5'       -7.1066     5.0536  1445.3103 C.3      447 DT      0.0000
    582 C4'       -6.6894     3.7939  1445.9865 C.3      447 DT      0.0000
    583 O4'       -5.2856     3.5671  1445.9631 O.3      447 DT      0.0000
    584 C3'       -7.1308     3.6852  1447.4531 C.3      447 DT      0.0000
    585 O3'       -7.6343     2.3894  1447.7171 O.3      447 DT      0.0000
    586 C2'       -5.7846     3.8839  1448.1894 C.3      447 DT      0.0000
    587 C1'       -4.9339     3.0147  1447.2859 C.3      447 DT      0.0000
    588 N1        -3.5227     3.1756  1447.5836 N.am     447 DT      0.0000
    589 C2        -2.7256     2.0438  1447.6384 C.2      447 DT      0.0000
    590 O2        -3.2418     0.9413  1447.4500 O.2      447 DT      0.0000
    591 N3        -1.3947     2.2029  1447.9043 N.am     447 DT      0.0000
    592 C4        -0.8374     3.4274  1448.1113 C.2      447 DT      0.0000
    593 O4         0.4049     3.4983  1448.3346 O.2      447 DT      0.0000
    594 C5        -1.6663     4.5852  1448.0463 C.2      447 DT      0.0000
    595 C7        -1.1256     5.9695  1448.2562 C.3      447 DT      0.0000
    596 C6        -2.9712     4.4106  1447.7851 C.2      447 DT      0.0000
    597 H5'       -8.1935     5.1338  1445.3227 H        447 DT      0.0000
    598 H5''      -6.7519     5.0501  1444.2796 H        447 DT      0.0000
    599 H4'       -7.1573     2.9698  1445.4480 H        447 DT      0.0000
    600 H3'       -7.8520     4.4592  1447.7155 H        447 DT      0.0000
    601 H2'       -5.4609     4.9246  1448.1882 H        447 DT      0.0000
    602 H2''      -5.8242     3.4827  1449.2022 H        447 DT      0.0000
    603 H1'       -5.2303     1.9685  1447.3615 H        447 DT      0.0000
    604 H3        -0.8047     1.3844  1447.9487 H        447 DT      0.0000
    605 H6        -3.6105     5.2794  1447.7321 H        447 DT      0.0000
    606 H71       -0.0552     5.9158  1448.4551 H        447 DT      0.0000
    607 H72       -1.2989     6.5666  1447.3609 H        447 DT      0.0000
    608 H73       -1.6300     6.4318  1449.1046 H        447 DT      0.0000
    609 P         -8.9489     1.7851  1448.3251 P.3      448 DC      0.0000
    610 OP1       -9.8005     1.1260  1447.2572 O.co2    448 DC      0.0000
    611 OP2       -9.5843     2.8940  1449.0601 O.co2    448 DC      0.0000
    612 O5'       -8.2283     0.5774  1449.1511 O.3      448 DC      0.0000
    613 C5'       -7.4065    -0.0971  1448.1289 C.3      448 DC      0.0000
    614 C4'       -6.6456    -1.1891  1448.8254 C.3      448 DC      0.0000
    615 O4'       -5.3176    -0.8449  1449.0723 O.3      448 DC      0.0000
    616 C3'       -7.2776    -1.6960  1450.1168 C.3      448 DC      0.0000
    617 O3'       -7.5061    -3.0968  1450.0372 O.3      448 DC      0.0000
    618 C2'       -6.2890    -1.1818  1451.1656 C.3      448 DC      0.0000
    619 C1'       -4.9866    -1.1457  1450.4692 C.3      448 DC      0.0000
    620 N1        -4.0822    -0.0403  1450.8013 N.am     448 DC      0.0000
    621 C2        -2.7589    -0.3927  1451.0571 C.2      448 DC      0.0000
    622 O2        -2.3976    -1.5735  1451.0616 O.2      448 DC      0.0000
    623 N3        -1.8756     0.6222  1451.3309 N.2      448 DC      0.0000
    624 C4        -2.2668     1.9288  1451.3210 C.2      448 DC      0.0000
    625 N4        -1.3385     2.8379  1451.5979 N.pl3    448 DC      0.0000
    626 C5        -3.6082     2.2721  1451.0430 C.2      448 DC      0.0000
    627 C6        -4.4640     1.2637  1450.7782 C.2      448 DC      0.0000
    628 H5'       -8.0462    -0.5218  1447.3552 H        448 DC      0.0000
    629 H5''      -6.7103     0.6143  1447.6847 H        448 DC      0.0000
    630 H4'       -6.6230    -2.0359  1448.1394 H        448 DC      0.0000
    631 H3'       -8.2338    -1.1927  1450.2601 H        448 DC      0.0000
    632 H2'       -6.5717    -0.1848  1451.5035 H        448 DC      0.0000
    633 H2''      -6.2455    -1.8683  1452.0111 H        448 DC      0.0000
    634 H1'       -4.4751    -2.1048  1450.5501 H        448 DC      0.0000
    635 H5        -3.9358     3.3012  1451.0424 H        448 DC      0.0000
    636 H6        -5.4901     1.5013  1450.5392 H        448 DC      0.0000
    637 H41       -0.3917     2.5484  1451.7971 H        448 DC      0.0000
    638 H42       -1.5797     3.8186  1451.6092 H        448 DC      0.0000
    639 P         -8.4920    -3.9656  1450.9892 P.3      449 DA      0.0000
    640 OP1       -8.9105    -5.1883  1450.1955 O.co2    449 DA      0.0000
    641 OP2       -9.6501    -3.1163  1451.3347 O.co2    449 DA      0.0000
    642 O5'       -7.5545    -4.3491  1452.2862 O.3      449 DA      0.0000
    643 C5'       -6.2708    -4.9800  1451.9910 C.3      449 DA      0.0000
    644 C4'       -5.4865    -5.1796  1453.2463 C.3      449 DA      0.0000
    645 O4'       -4.4694    -4.2029  1453.4884 O.3      449 DA      0.0000
    646 C3'       -6.2984    -5.1328  1454.5515 C.3      449 DA      0.0000
    647 O3'       -5.5421    -5.7735  1455.5814 O.3      449 DA      0.0000
    648 C2'       -6.3377    -3.6066  1454.7661 C.3      449 DA      0.0000
    649 C1'       -4.8354    -3.3659  1454.5828 C.3      449 DA      0.0000
    650 N9        -4.5877    -1.9371  1454.4885 N.ar     449 DA      0.0000
    651 C8        -5.4573    -0.8882  1454.3726 C.ar     449 DA      0.0000
    652 N7        -4.8921     0.3056  1454.3541 N.ar     449 DA      0.0000
    653 C5        -3.5391     0.0165  1454.4616 C.ar     449 DA      0.0000
    654 C6        -2.3912     0.8461  1454.4961 C.ar     449 DA      0.0000
    655 N6        -2.4166     2.1640  1454.4109 N.pl3    449 DA      0.0000
    656 N1        -1.1915     0.2075  1454.6287 N.ar     449 DA      0.0000
    657 C2        -1.1187    -1.1577  1454.7089 C.ar     449 DA      0.0000
    658 N3        -2.1480    -2.0010  1454.6790 N.ar     449 DA      0.0000
    659 C4        -3.3306    -1.3498  1454.5560 C.ar     449 DA      0.0000
    660 H5'       -6.4462    -5.9471  1451.5198 H        449 DA      0.0000
    661 H5''      -5.7050    -4.3444  1451.3097 H        449 DA      0.0000
    662 H4'       -5.0049    -6.1556  1453.1874 H        449 DA      0.0000
    663 H3'       -7.2936    -5.5626  1454.4378 H        449 DA      0.0000
    664 H2'       -6.9386    -3.0935  1454.0153 H        449 DA      0.0000
    665 H2''      -6.6613    -3.3544  1455.7760 H        449 DA      0.0000
    666 H1'       -4.3260    -3.7360  1455.4724 H        449 DA      0.0000
    667 H8        -6.5262    -1.0255  1454.3017 H        449 DA      0.0000
    668 H2        -0.1339    -1.5905  1454.8053 H        449 DA      0.0000
    669 H61       -1.7420     2.8938  1454.5909 H        449 DA      0.0000
    670 H62       -3.3075     2.5207  1454.0961 H        449 DA      0.0000
    671 P         -5.5071    -7.3671  1455.7219 P.3      450 DC      0.0000
    672 OP1       -5.9177    -8.0758  1454.4768 O.co2    450 DC      0.0000
    673 OP2       -6.4510    -7.6056  1456.8648 O.co2    450 DC      0.0000
    674 O5'       -3.9774    -7.6744  1456.0050 O.3      450 DC      0.0000
    675 C5'       -3.0072    -7.7547  1454.9173 C.3      450 DC      0.0000
    676 C4'       -1.7185    -7.3165  1455.6223 C.3      450 DC      0.0000
    677 O4'       -1.8541    -5.9495  1455.9343 O.3      450 DC      0.0000
    678 C3'       -1.4522    -8.0536  1456.9322 C.3      450 DC      0.0000
    679 O3'       -0.1232    -8.6182  1457.0001 O.3      450 DC      0.0000
    680 C2'       -1.7191    -6.9965  1458.0144 C.3      450 DC      0.0000
    681 C1'       -1.3362    -5.7429  1457.3382 C.3      450 DC      0.0000
    682 N1        -1.9533    -4.4669  1457.6910 N.am     450 DC      0.0000
    683 C2        -1.0971    -3.3676  1457.6641 C.2      450 DC      0.0000
    684 O2         0.1055    -3.4707  1457.4572 O.2      450 DC      0.0000
    685 N3        -1.6400    -2.1465  1457.9173 N.2      450 DC      0.0000
    686 C4        -2.9633    -1.9727  1458.1506 C.2      450 DC      0.0000
    687 N4        -3.3763    -0.7279  1458.3816 N.pl3    450 DC      0.0000
    688 C5        -3.8292    -3.1007  1458.1572 C.2      450 DC      0.0000
    689 C6        -3.2864    -4.3024  1457.9077 C.2      450 DC      0.0000
    690 H5'       -2.9243    -8.7711  1454.5325 H        450 DC      0.0000
    691 H5''      -3.2652    -7.0595  1454.1183 H        450 DC      0.0000
    692 H4'       -0.8718    -7.4534  1454.9496 H        450 DC      0.0000
    693 H3'       -2.1813    -8.8569  1457.0381 H        450 DC      0.0000
    694 H2'       -2.7706    -6.9838  1458.3014 H        450 DC      0.0000
    695 H2''      -1.0865    -7.1711  1458.8847 H        450 DC      0.0000
    696 H1'       -0.2509    -5.6421  1457.3250 H        450 DC      0.0000
    697 H5        -4.8854    -2.9941  1458.3557 H        450 DC      0.0000
    698 H6        -3.9302    -5.1691  1457.8780 H        450 DC      0.0000
    699 H41       -2.7137     0.0342  1458.3705 H        450 DC      0.0000
    700 H42       -4.3522    -0.5460  1458.5677 H        450 DC      0.0000
    701 P          1.4748     8.3589  1459.9596 P.3      450 DG      0.0000
    702 OP1        1.6666     9.8314  1460.1384 O.co2    450 DG      0.0000
    703 OP2        0.4621     8.0167  1458.8748 O.co2    450 DG      0.0000
    704 O5'        2.9403     7.6389  1459.7524 O.3      450 DG      0.0000
    705 C5'        3.5086     6.8475  1460.8481 C.3      450 DG      0.0000
    706 C4'        4.2013     5.6436  1460.2139 C.3      450 DG      0.0000
    707 O4'        3.3472     4.5365  1460.1180 O.3      450 DG      0.0000
    708 C3'        4.7397     5.8931  1458.8075 C.3      450 DG      0.0000
    709 O3'        6.0210     5.2775  1458.5405 O.3      450 DG      0.0000
    710 C2'        3.6360     5.3124  1457.9052 C.3      450 DG      0.0000
    711 C1'        3.1972     4.1131  1458.7291 C.3      450 DG      0.0000
    712 N9         1.7917     3.7677  1458.4557 N.ar     450 DG      0.0000
    713 C8         0.7264     4.6222  1458.2991 C.ar     450 DG      0.0000
    714 N7        -0.4113     4.0181  1458.0807 N.ar     450 DG      0.0000
    715 C5        -0.0778     2.6690  1458.1055 C.ar     450 DG      0.0000
    716 C6        -0.8742     1.5033  1457.9490 C.2      450 DG      0.0000
    717 O6        -2.0971     1.4634  1457.7522 O.2      450 DG      0.0000
    718 N1        -0.1745     0.3250  1458.0359 N.am     450 DG      0.0000
    719 C2         1.1623     0.2821  1458.2566 C.2      450 DG      0.0000
    720 N2         1.7034    -0.9315  1458.3199 N.pl3    450 DG      0.0000
    721 N3         1.9570     1.3477  1458.4143 N.2      450 DG      0.0000
    722 C4         1.2698     2.5035  1458.3310 C.ar     450 DG      0.0000
    723 H5'        4.2304     7.4441  1461.4059 H        450 DG      0.0000
    724 H5''       2.7135     6.5101  1461.5131 H        450 DG      0.0000
    725 H4'        5.0412     5.3656  1460.8506 H        450 DG      0.0000
    726 H3'        4.8148     6.9671  1458.6370 H        450 DG      0.0000
    727 H2'        2.8203     6.0211  1457.7626 H        450 DG      0.0000
    728 H2''       4.0460     4.9950  1456.9465 H        450 DG      0.0000
    729 H1'        3.8420     3.2586  1458.5238 H        450 DG      0.0000
    730 H8         0.8214     5.6968  1458.3518 H        450 DG      0.0000
    731 H1        -0.6763    -0.5452  1457.9311 H        450 DG      0.0000
    732 H21        1.1228    -1.7499  1458.2049 H        450 DG      0.0000
    733 H22        2.6948    -1.0345  1458.4831 H        450 DG      0.0000
    734 P          6.2837     4.8556  1457.0170 P.3      449 DT      0.0000
    735 OP1        7.7370     4.8678  1456.6261 O.co2    449 DT      0.0000
    736 OP2        5.5298     5.9243  1456.3165 O.co2    449 DT      0.0000
    737 O5'        5.6915     3.3726  1456.8861 O.3      449 DT      0.0000
    738 C5'        6.6140     2.2684  1457.1538 C.3      449 DT      0.0000
    739 C4'        6.1334     1.0495  1456.3967 C.3      449 DT      0.0000
    740 O4'        4.7216     0.9378  1456.3694 O.3      449 DT      0.0000
    741 C3'        6.5769     1.0379  1454.9420 C.3      449 DT      0.0000
    742 O3'        6.9362    -0.2702  1454.4469 O.3      449 DT      0.0000
    743 C2'        5.3745     1.6033  1454.2192 C.3      449 DT      0.0000
    744 C1'        4.2688     0.9094  1454.9973 C.3      449 DT      0.0000
    745 N1         3.0612     1.7362  1454.8460 N.am     449 DT      0.0000
    746 C2         1.8439     1.0713  1454.9527 C.2      449 DT      0.0000
    747 O2         1.8117    -0.1399  1455.1425 O.2      449 DT      0.0000
    748 N3         0.7091     1.8238  1454.8326 N.am     449 DT      0.0000
    749 C4         0.7552     3.1682  1454.6150 C.2      449 DT      0.0000
    750 O4        -0.3566     3.7856  1454.5174 O.2      449 DT      0.0000
    751 C5         2.0165     3.8210  1454.5086 C.2      449 DT      0.0000
    752 C7         2.0793     5.3040  1454.2797 C.3      449 DT      0.0000
    753 C6         3.1216     3.0811  1454.6304 C.2      449 DT      0.0000
    754 H5'        7.6162     2.5372  1456.8201 H        449 DT      0.0000
    755 H5''       6.6288     2.0539  1458.2224 H        449 DT      0.0000
    756 H4'        6.5374     0.1625  1456.8847 H        449 DT      0.0000
    757 H3'        7.4225     1.7145  1454.8180 H        449 DT      0.0000
    758 H2'        5.3175     2.6880  1454.3107 H        449 DT      0.0000
    759 H2''       5.3677     1.2980  1453.1728 H        449 DT      0.0000
    760 H1'        4.1069    -0.1099  1454.6466 H        449 DT      0.0000
    761 H3        -0.1901     1.3700  1454.9072 H        449 DT      0.0000
    762 H6         4.0868     3.5598  1454.5562 H        449 DT      0.0000
    763 H71        1.0680     5.7046  1454.2110 H        449 DT      0.0000
    764 H72        2.6019     5.7778  1455.1105 H        449 DT      0.0000
    765 H73        2.6140     5.5060  1453.3515 H        449 DT      0.0000
    766 P          8.3937    -0.1146  1453.6685 P.3      448 DG      0.0000
    767 OP1        9.5679    -0.4217  1454.5398 O.co2    448 DG      0.0000
    768 OP2        8.2745     1.3082  1453.2630 O.co2    448 DG      0.0000
    769 O5'        8.2727    -1.2859  1452.5877 O.3      448 DG      0.0000
    770 C5'        8.4988    -2.6543  1453.0112 C.3      448 DG      0.0000
    771 C4'        7.2546    -3.4110  1452.5634 C.3      448 DG      0.0000
    772 O4'        6.1040    -2.6357  1452.8342 O.3      448 DG      0.0000
    773 C3'        7.2313    -3.7618  1451.0757 C.3      448 DG      0.0000
    774 O3'        7.0680    -5.1532  1450.8672 O.3      448 DG      0.0000
    775 C2'        6.1370    -2.8813  1450.4990 C.3      448 DG      0.0000
    776 C1'        5.2290    -2.6576  1451.6851 C.3      448 DG      0.0000
    777 N9         4.5096    -1.3869  1451.5616 N.ar     448 DG      0.0000
    778 C8         5.0258    -0.1320  1451.4027 C.ar     448 DG      0.0000
    779 N7         4.1149     0.8072  1451.3247 N.ar     448 DG      0.0000
    780 C5         2.9108     0.1227  1451.4622 C.ar     448 DG      0.0000
    781 C6         1.5631     0.5695  1451.4717 C.2      448 DG      0.0000
    782 O6         1.1654     1.7258  1451.3726 O.2      448 DG      0.0000
    783 N1         0.6364    -0.4230  1451.6206 N.am     448 DG      0.0000
    784 C2         0.9948    -1.7426  1451.7535 C.2      448 DG      0.0000
    785 N2        -0.0103    -2.6082  1451.8892 N.pl3    448 DG      0.0000
    786 N3         2.2401    -2.2288  1451.7578 N.2      448 DG      0.0000
    787 C4         3.1474    -1.2338  1451.6071 C.ar     448 DG      0.0000
    788 H5'        9.3890    -3.0621  1452.5324 H        448 DG      0.0000
    789 H5''       8.5988    -2.7016  1454.0955 H        448 DG      0.0000
    790 H4'        7.1892    -4.3359  1453.1364 H        448 DG      0.0000
    791 H3'        8.1820    -3.4587  1450.6371 H        448 DG      0.0000
    792 H2'        6.5438    -1.9387  1450.1326 H        448 DG      0.0000
    793 H2''       5.6054    -3.4034  1449.7035 H        448 DG      0.0000
    794 H1'        4.5198    -3.4807  1451.7722 H        448 DG      0.0000
    795 H8         6.0857     0.0675  1451.3466 H        448 DG      0.0000
    796 H1        -0.3435    -0.1788  1451.6335 H        448 DG      0.0000
    797 H21       -0.9647    -2.2778  1451.8901 H        448 DG      0.0000
    798 H22        0.1828    -3.5943  1451.9909 H        448 DG      0.0000
    799 P          6.0955    -6.0481  1450.0009 P.3      447 DA      0.0000
    800 OP1        5.7004    -7.3076  1450.7823 O.co2    447 DA      0.0000
    801 OP2        6.8662    -6.4067  1448.8082 O.co2    447 DA      0.0000
    802 O5'        4.7220    -5.1895  1449.8261 O.3      447 DA      0.0000
    803 C5'        3.8202    -5.3650  1450.9826 C.3      447 DA      0.0000
    804 C4'        2.5645    -6.0136  1450.4548 C.3      447 DA      0.0000
    805 O4'        1.5329    -5.0859  1450.2325 O.3      447 DA      0.0000
    806 C3'        2.7752    -6.7164  1449.1143 C.3      447 DA      0.0000
    807 O3'        2.1020    -7.9503  1449.0391 O.3      447 DA      0.0000
    808 C2'        2.3875    -5.6388  1448.1177 C.3      447 DA      0.0000
    809 C1'        1.4600    -4.7032  1448.8415 C.3      447 DA      0.0000
    810 N9         1.8242    -3.2940  1448.6160 N.ar     447 DA      0.0000
    811 C8         3.0728    -2.7412  1448.4297 C.ar     447 DA      0.0000
    812 N7         3.0665    -1.4428  1448.2338 N.ar     447 DA      0.0000
    813 C5         1.7193    -1.1147  1448.3206 C.ar     447 DA      0.0000
    814 C6         1.0499     0.1268  1448.2150 C.ar     447 DA      0.0000
    815 N6         1.6637     1.2776  1448.0025 N.pl3    447 DA      0.0000
    816 N1        -0.3056     0.0885  1448.3387 N.ar     447 DA      0.0000
    817 C2        -0.9661    -1.0857  1448.5632 C.ar     447 DA      0.0000
    818 N3        -0.3972    -2.2838  1448.6791 N.ar     447 DA      0.0000
    819 C4         0.9499    -2.2330  1448.5430 C.ar     447 DA      0.0000
    820 H5'        4.2882    -6.0049  1451.7306 H        447 DA      0.0000
    821 H5''       3.5824    -4.3950  1451.4192 H        447 DA      0.0000
    822 H4'        2.2205    -6.7486  1451.1824 H        447 DA      0.0000
    823 H3'        3.8421    -6.9093  1449.0011 H        447 DA      0.0000
    824 H2'        1.8811    -6.0829  1447.2608 H        447 DA      0.0000
    825 H2''       3.2758    -5.1005  1447.7871 H        447 DA      0.0000
    826 H1'        0.4436    -4.8666  1448.4833 H        447 DA      0.0000
    827 H8         3.9803    -3.3267  1448.4436 H        447 DA      0.0000
    828 H2        -2.0412    -1.0382  1448.6545 H        447 DA      0.0000
    829 H61        1.2630     2.1495  1448.3179 H        447 DA      0.0000
    830 H62        2.5489     1.2854  1447.5163 H        447 DA      0.0000
    831 P          1.3201    -8.6446  1447.8545 P.3      446 DA      0.0000
    832 OP1        0.5292    -9.8805  1448.3744 O.co2    446 DA      0.0000
    833 OP2        2.3921    -9.1111  1446.9208 O.co2    446 DA      0.0000
    834 O5'        0.2271    -7.6274  1447.3518 O.3      446 DA      0.0000
    835 C5'       -1.1361    -7.7508  1447.8076 C.3      446 DA      0.0000
    836 C4'       -1.9356    -6.6748  1447.1057 C.3      446 DA      0.0000
    837 O4'       -1.2703    -5.4498  1446.9849 O.3      446 DA      0.0000
    838 C3'       -2.3819    -7.0679  1445.6982 C.3      446 DA      0.0000
    839 O3'       -3.8166    -7.1886  1445.6667 O.3      446 DA      0.0000
    840 C2'       -1.7203    -6.0223  1444.7986 C.3      446 DA      0.0000
    841 C1'       -1.5921    -4.8292  1445.6964 C.3      446 DA      0.0000
    842 N9        -0.5052    -3.9029  1445.3968 N.ar     446 DA      0.0000
    843 C8         0.8355    -4.1634  1445.2020 C.ar     446 DA      0.0000
    844 N7         1.5606    -3.0866  1444.9966 N.ar     446 DA      0.0000
    845 C5         0.6525    -2.0485  1445.0711 C.ar     446 DA      0.0000
    846 C6         0.8051    -0.6502  1444.9377 C.ar     446 DA      0.0000
    847 N6         1.9673    -0.0520  1444.6945 N.pl3    446 DA      0.0000
    848 N1        -0.3468     0.0799  1445.0865 N.ar     446 DA      0.0000
    849 C2        -1.5371    -0.4977  1445.3390 C.ar     446 DA      0.0000
    850 N3        -1.7566    -1.8087  1445.4779 N.ar     446 DA      0.0000
    851 C4        -0.6200    -2.5253  1445.3307 C.ar     446 DA      0.0000
    852 H5'       -1.5285    -8.7351  1447.5525 H        446 DA      0.0000
    853 H5''      -1.1812    -7.6019  1448.8864 H        446 DA      0.0000
    854 H4'       -2.8352    -6.5001  1447.6958 H        446 DA      0.0000
    855 H3'       -1.9522    -8.0416  1445.4632 H        446 DA      0.0000
    856 H2'       -0.7420    -6.3623  1444.4587 H        446 DA      0.0000
    857 H2''      -2.3607    -5.7918  1443.9473 H        446 DA      0.0000
    858 H1'       -2.5406    -4.2956  1445.7575 H        446 DA      0.0000
    859 H8         1.2509    -5.1603  1445.2170 H        446 DA      0.0000
    860 H2        -2.3903     0.1570  1445.4381 H        446 DA      0.0000
    861 H61        2.0260     0.9125  1444.9885 H        446 DA      0.0000
    862 H62        2.7373    -0.5285  1444.2472 H        446 DA      0.0000
    863 P         -4.5359    -7.5843  1444.2817 P.3      445 DT      0.0000
    864 OP1       -5.9702    -8.0115  1444.3399 O.co2    445 DT      0.0000
    865 OP2       -3.5809    -8.6139  1443.7691 O.co2    445 DT      0.0000
    866 O5'       -4.5267    -6.0733  1443.5786 O.3      445 DT      0.0000
    867 C5'       -4.8714    -5.0797  1444.5909 C.3      445 DT      0.0000
    868 C4'       -5.3904    -3.8549  1443.9080 C.3      445 DT      0.0000
    869 O4'       -4.4233    -2.8641  1443.7276 O.3      445 DT      0.0000
    870 C3'       -6.0152    -4.1190  1442.5467 C.3      445 DT      0.0000
    871 O3'       -7.1541    -3.2915  1442.2794 O.3      445 DT      0.0000
    872 C2'       -4.7954    -3.8584  1441.6534 C.3      445 DT      0.0000
    873 C1'       -4.2059    -2.6197  1442.2934 C.3      445 DT      0.0000
    874 N1        -2.7511    -2.5394  1442.0634 N.am     445 DT      0.0000
    875 C2        -2.1919    -1.2795  1441.9418 C.2      445 DT      0.0000
    876 O2        -2.8913    -0.2659  1441.9786 O.2      445 DT      0.0000
    877 N3        -0.8365    -1.1921  1441.7744 N.am     445 DT      0.0000
    878 C4        -0.0450    -2.2971  1441.7259 C.2      445 DT      0.0000
    879 O4         1.1964    -2.1234  1441.5404 O.2      445 DT      0.0000
    880 C5        -0.6375    -3.5824  1441.8743 C.2      445 DT      0.0000
    881 C7         0.2099    -4.8313  1441.8222 C.3      445 DT      0.0000
    882 C6        -1.9616    -3.6505  1442.0473 C.2      445 DT      0.0000
    883 H5'       -5.6380    -5.4824  1445.2530 H        445 DT      0.0000
    884 H5''      -3.9840    -4.8262  1445.1710 H        445 DT      0.0000
    885 H4'       -6.1688    -3.4349  1444.5450 H        445 DT      0.0000
    886 H3'       -6.3021    -5.1680  1442.4747 H        445 DT      0.0000
    887 H2'       -4.0950    -4.6930  1441.6840 H        445 DT      0.0000
    888 H2''      -5.1051    -3.6525  1440.6288 H        445 DT      0.0000
    889 H1'       -4.7148    -1.7154  1441.9595 H        445 DT      0.0000
    890 H3        -0.4114    -0.2803  1441.6843 H        445 DT      0.0000
    891 H6        -2.4213    -4.6190  1442.1787 H        445 DT      0.0000
    892 H71        0.1771    -5.2516  1440.8170 H        445 DT      0.0000
    893 H72       -0.1757    -5.5615  1442.5337 H        445 DT      0.0000
    894 H73        1.2396    -4.5827  1442.0787 H        445 DT      0.0000
    895 P         -7.8094    -3.4500  1440.7895 P.3      444 DT      0.0000
    896 OP1       -9.2096    -4.0484  1440.9375 O.co2    444 DT      0.0000
    897 OP2       -6.9036    -4.4431  1440.1197 O.co2    444 DT      0.0000
    898 O5'       -7.8383    -2.0441  1440.1375 O.3      444 DT      0.0000
    899 C5'       -7.9631    -0.8366  1440.8889 C.3      444 DT      0.0000
    900 C4'       -7.2669     0.2548  1440.1409 C.3      444 DT      0.0000
    901 O4'       -5.8661     0.2379  1440.0839 O.3      444 DT      0.0000
    902 C3'       -7.6881     0.4946  1438.6748 C.3      444 DT      0.0000
    903 O3'       -7.5524     1.9151  1438.5711 O.3      444 DT      0.0000
    904 C2'       -6.5832    -0.2472  1437.9111 C.3      444 DT      0.0000
    905 C1'       -5.4101     0.3162  1438.6868 C.3      444 DT      0.0000
    906 N1        -4.1544    -0.4322  1438.5806 N.am     444 DT      0.0000
    907 C2        -2.9893     0.3465  1438.5800 C.2      444 DT      0.0000
    908 O2        -3.0465     1.5772  1438.6231 O.2      444 DT      0.0000
    909 N3        -1.7980    -0.3184  1438.5266 N.am     444 DT      0.0000
    910 C4        -1.7137    -1.6777  1438.4668 C.2      444 DT      0.0000
    911 O4        -0.5604    -2.2006  1438.4044 O.2      444 DT      0.0000
    912 C5        -2.9114    -2.4434  1438.4751 C.2      444 DT      0.0000
    913 C7        -2.8324    -3.9546  1438.4136 C.3      444 DT      0.0000
    914 C6        -4.0744    -1.7888  1438.5415 C.2      444 DT      0.0000
    915 H5'       -9.0167    -0.5857  1441.0111 H        444 DT      0.0000
    916 H5''      -7.5002    -0.9639  1441.8674 H        444 DT      0.0000
    917 H4'       -7.5227     1.1739  1440.6681 H        444 DT      0.0000
    918 H3'       -8.6915     0.1354  1438.4461 H        444 DT      0.0000
    919 H2'       -6.5529     0.0230  1436.8555 H        444 DT      0.0000
    920 H2''      -6.6649    -1.3261  1438.0427 H        444 DT      0.0000
    921 H1'       -5.2463     1.3571  1438.4078 H        444 DT      0.0000
    922 H3        -0.9433     0.2195  1438.5314 H        444 DT      0.0000
    923 H6        -4.9896    -2.3617  1438.5652 H        444 DT      0.0000
    924 H71       -1.7880    -4.2627  1438.3648 H        444 DT      0.0000
    925 H72       -3.3576    -4.3099  1437.5270 H        444 DT      0.0000
    926 H73       -3.2951    -4.3791  1439.3046 H        444 DT      0.0000
    927 P         -8.0802     2.8196  1437.4249 P.3      443 DC      0.0000
    928 OP1       -8.8296     4.0060  1438.0340 O.co2    443 DC      0.0000
    929 OP2       -9.0331     1.9709  1436.6430 O.co2    443 DC      0.0000
    930 O5'       -6.6887     3.2336  1436.6854 O.3      443 DC      0.0000
    931 C5'       -5.8713     4.2104  1437.4100 C.3      443 DC      0.0000
    932 C4'       -5.1956     5.0529  1436.3594 C.3      443 DC      0.0000
    933 O4'       -3.8715     4.6394  1436.1141 O.3      443 DC      0.0000
    934 C3'       -5.8867     5.0723  1434.9950 C.3      443 DC      0.0000
    935 O3'       -5.7712     6.3078  1434.2857 O.3      443 DC      0.0000
    936 C2'       -5.1956     3.8860  1434.3089 C.3      443 DC      0.0000
    937 C1'       -3.7719     3.9735  1434.8555 C.3      443 DC      0.0000
    938 N1        -3.2426     2.5945  1434.9733 N.am     443 DC      0.0000
    939 C2        -1.8564     2.4473  1434.9905 C.2      443 DC      0.0000
    940 O2        -1.1069     3.4311  1434.9218 O.2      443 DC      0.0000
    941 N3        -1.3629     1.1748  1435.0937 N.2      443 DC      0.0000
    942 C4        -2.1757     0.0883  1435.1645 C.2      443 DC      0.0000
    943 N4        -1.6465    -1.1329  1435.2664 N.pl3    443 DC      0.0000
    944 C5        -3.5871     0.2666  1435.1394 C.2      443 DC      0.0000
    945 C6        -4.0710     1.5169  1435.0458 C.2      443 DC      0.0000
    946 H5'       -6.5010     4.8326  1438.0459 H        443 DC      0.0000
    947 H5''      -5.1234     3.6964  1438.0138 H        443 DC      0.0000
    948 H4'       -5.1603     6.0780  1436.7282 H        443 DC      0.0000
    949 H3'       -6.9427     4.8381  1435.1292 H        443 DC      0.0000
    950 H2'       -5.2088     3.9956  1433.2245 H        443 DC      0.0000
    951 H2''      -5.6627     2.9466  1434.6048 H        443 DC      0.0000
    952 H1'       -3.1481     4.5543  1434.1761 H        443 DC      0.0000
    953 H5        -4.2531    -0.5819  1435.1941 H        443 DC      0.0000
    954 H6        -5.1400     1.6700  1435.0277 H        443 DC      0.0000
    955 H41       -0.6433    -1.2484  1435.2871 H        443 DC      0.0000
    956 H42       -2.2492    -1.9414  1435.3228 H        443 DC      0.0000
    957 P         -5.6047     6.4721  1432.6537 P.3      442 DA      0.0000
    958 OP1       -6.0833     7.8540  1432.2642 O.co2    442 DA      0.0000
    959 OP2       -6.4011     5.3515  1432.0837 O.co2    442 DA      0.0000
    960 O5'       -4.0175     6.4303  1432.4882 O.3      442 DA      0.0000
    961 C5'       -3.2424     7.6027  1432.9536 C.3      442 DA      0.0000
    962 C4'       -2.0046     7.5239  1432.0763 C.3      442 DA      0.0000
    963 O4'       -1.2984     6.3056  1432.3437 O.3      442 DA      0.0000
    964 C3'       -2.3241     7.4650  1430.5719 C.3      442 DA      0.0000
    965 O3'       -1.1850     7.7690  1429.7829 O.3      442 DA      0.0000
    966 C2'       -2.5561     5.9544  1430.3845 C.3      442 DA      0.0000
    967 C1'       -1.2671     5.5283  1431.1391 C.3      442 DA      0.0000
    968 N9        -1.3906     4.0815  1431.2845 N.ar     442 DA      0.0000
    969 C8        -2.5632     3.3632  1431.3574 C.ar     442 DA      0.0000
    970 N7        -2.3755     2.0724  1431.4720 N.ar     442 DA      0.0000
    971 C5        -0.9753     1.9411  1431.4657 C.ar     442 DA      0.0000
    972 C6        -0.1467     0.7898  1431.5656 C.ar     442 DA      0.0000
    973 N6        -0.6160    -0.4552  1431.6884 N.pl3    442 DA      0.0000
    974 N1         1.1895     1.0532  1431.5304 N.ar     442 DA      0.0000
    975 C2         1.6663     2.3166  1431.4116 C.ar     442 DA      0.0000
    976 N3         0.9478     3.4394  1431.3201 N.ar     442 DA      0.0000
    977 C4        -0.3685     3.1671  1431.3476 C.ar     442 DA      0.0000
    978 H5'       -3.7885     8.5311  1432.7869 H        442 DA      0.0000
    979 H5''      -2.9765     7.4957  1434.0053 H        442 DA      0.0000
    980 H4'       -1.3560     8.3759  1432.2803 H        442 DA      0.0000
    981 H3'       -3.1953     8.0620  1430.3023 H        442 DA      0.0000
    982 H2'       -3.4677     5.6008  1430.8661 H        442 DA      0.0000
    983 H2''      -2.5198     5.6691  1429.3331 H        442 DA      0.0000
    984 H1'       -0.3838     5.7762  1430.5507 H        442 DA      0.0000
    985 H8        -3.5414     3.8197  1431.3234 H        442 DA      0.0000
    986 H2         2.7403     2.4272  1431.3884 H        442 DA      0.0000
    987 H61       -1.6122    -0.6192  1431.7132 H        442 DA      0.0000
    988 H62        0.0256    -1.2322  1431.7565 H        442 DA      0.0000
    989 P         -1.2583     8.8711  1428.6420 P.3      441 DC      0.0000
    990 OP1       -1.0370    10.1563  1429.4222 O.co2    441 DC      0.0000
    991 OP2       -2.5334     8.8506  1427.9164 O.co2    441 DC      0.0000
    992 O5'       -0.0296     8.3788  1427.6661 O.3      441 DC      0.0000
    993 C5'        1.2723     8.1684  1428.3351 C.3      441 DC      0.0000
    994 C4'        1.9558     6.9913  1427.6911 C.3      441 DC      0.0000
    995 O4'        1.6812     5.7496  1428.3282 O.3      441 DC      0.0000
    996 C3'        1.5694     6.8097  1426.2133 C.3      441 DC      0.0000
    997 O3'        2.6165     6.2923  1425.4020 O.3      441 DC      0.0000
    998 C2'        0.4638     5.7161  1426.3789 C.3      441 DC      0.0000
    999 C1'        1.3857     4.8091  1427.2745 C.3      441 DC      0.0000
   1000 N1         0.6673     3.5845  1427.5124 N.am     441 DC      0.0000
   1001 C2         1.3901     2.4458  1427.8295 C.2      441 DC      0.0000
   1002 O2         2.6093     2.2978  1427.9700 O.2      441 DC      0.0000
   1003 N3         0.6998     1.2823  1428.0277 N.2      441 DC      0.0000
   1004 C4        -0.6616     1.2188  1427.9118 C.2      441 DC      0.0000
   1005 N4        -1.2970     0.0565  1428.1278 N.pl3    441 DC      0.0000
   1006 C5        -1.3895     2.3954  1427.5821 C.2      441 DC      0.0000
   1007 C6        -0.6919     3.5211  1427.3904 C.2      441 DC      0.0000
   1008 H5'        1.8910     9.0589  1428.2236 H        441 DC      0.0000
   1009 H5''       1.1114     7.9645  1429.3937 H        441 DC      0.0000
   1010 H4'        3.0314     7.1614  1427.7378 H        441 DC      0.0000
   1011 H3'        1.1594     7.7286  1425.7942 H        441 DC      0.0000
   1012 H2'       -0.4265     6.0742  1426.8960 H        441 DC      0.0000
   1013 H2''       0.2191     5.2375  1425.4307 H        441 DC      0.0000
   1014 H1'        2.3026     4.5845  1426.7296 H        441 DC      0.0000
   1015 H5        -2.4655     2.3808  1427.4900 H        441 DC      0.0000
   1016 H6        -1.2281     4.4209  1427.1272 H        441 DC      0.0000
   1017 H41       -0.7694    -0.7704  1428.3683 H        441 DC      0.0000
   1018 H42       -2.3029     0.0087  1428.0499 H        441 DC      0.0000
   1019 P          1.8679    -9.8434  1462.0011 P.3      451 DG      0.0000
   1020 OP1        1.4181   -11.2573  1461.9996 O.co2    451 DG      0.0000
   1021 OP2        1.0262    -9.1118  1463.0568 O.co2    451 DG      0.0000
   1022 O5'        3.4279    -9.5856  1462.1795 O.3      451 DG      0.0000
   1023 C5'        4.4135    -9.2510  1461.1795 C.3      451 DG      0.0000
   1024 C4'        5.2056    -8.0605  1461.6783 C.3      451 DG      0.0000
   1025 O4'        4.6436    -6.8357  1461.2592 O.3      451 DG      0.0000
   1026 C3'        5.4406    -7.9404  1463.1705 C.3      451 DG      0.0000
   1027 O3'        6.8535    -7.8071  1463.4825 O.3      451 DG      0.0000
   1028 C2'        4.6166    -6.7387  1463.5924 C.3      451 DG      0.0000
   1029 C1'        4.5385    -5.9044  1462.3368 C.3      451 DG      0.0000
   1030 N9         3.2708    -5.1526  1462.3077 N.ar     451 DG      0.0000
   1031 C8         1.9892    -5.5948  1462.5366 C.ar     451 DG      0.0000
   1032 N7         1.0737    -4.6565  1462.4469 N.ar     451 DG      0.0000
   1033 C5         1.8019    -3.5127  1462.1299 C.ar     451 DG      0.0000
   1034 C6         1.4028    -2.1723  1461.9040 C.2      451 DG      0.0000
   1035 O6         0.2650    -1.7017  1461.9252 O.2      451 DG      0.0000
   1036 N1         2.4196    -1.3015  1461.6224 N.am     451 DG      0.0000
   1037 C2         3.6615    -1.6620  1461.5618 C.2      451 DG      0.0000
   1038 N2         4.4014    -0.6651  1461.2650 N.pl3    451 DG      0.0000
   1039 N3         4.1530    -2.9546  1461.7705 N.2      451 DG      0.0000
   1040 C4         3.1507    -3.8023  1462.0431 C.ar     451 DG      0.0000
   1041 H5'        5.0808   -10.0981  1461.0208 H        451 DG      0.0000
   1042 H5''       3.9157    -8.9952  1460.2442 H        451 DG      0.0000
   1043 H4'        6.1894    -8.1256  1461.2136 H        451 DG      0.0000
   1044 H3'        5.0500    -8.8301  1463.6645 H        451 DG      0.0000
   1045 H2'        3.6227    -7.0438  1463.9194 H        451 DG      0.0000
   1046 H2''       5.1249    -6.1880  1464.3839 H        451 DG      0.0000
   1047 H1'        5.3779    -5.2098  1462.3048 H        451 DG      0.0000
   1048 H8         1.7554    -6.6232  1462.7697 H        451 DG      0.0000
   1049 H1         2.1907    -0.3323  1461.4541 H        451 DG      0.0000
   1050 H21        3.9882     0.2451  1461.1206 H        451 DG      0.0000
   1051 H22        5.3999    -0.7865  1461.1746 H        451 DG      0.0000
   1052 P          7.3750    -7.3830  1464.9110 P.3      452 DT      0.0000
   1053 OP1        8.5895    -8.1134  1465.4227 O.co2    452 DT      0.0000
   1054 OP2        6.2275    -7.8407  1465.8297 O.co2    452 DT      0.0000
   1055 O5'        7.4628    -5.8357  1464.9396 O.3      452 DT      0.0000
   1056 C5'        8.7136    -5.1081  1464.7956 C.3      452 DT      0.0000
   1057 C4'        8.3147    -3.6483  1464.8531 C.3      452 DT      0.0000
   1058 O4'        6.9441    -3.4589  1464.5780 O.3      452 DT      0.0000
   1059 C3'        8.5421    -2.9422  1466.1659 C.3      452 DT      0.0000
   1060 O3'        9.5356    -1.9238  1465.9777 O.3      452 DT      0.0000
   1061 C2'        7.1913    -2.3439  1466.5581 C.3      452 DT      0.0000
   1062 C1'        6.5425    -2.2063  1465.2054 C.3      452 DT      0.0000
   1063 N1         5.0827    -2.2146  1465.3020 N.am     452 DT      0.0000
   1064 C2         4.4312    -1.0275  1465.1041 C.2      452 DT      0.0000
   1065 O2         5.0270     0.0206  1464.8659 O.2      452 DT      0.0000
   1066 N3         3.0647    -1.0451  1465.1851 N.am     452 DT      0.0000
   1067 C4         2.3581    -2.1694  1465.4410 C.2      452 DT      0.0000
   1068 O4         1.1079    -2.0296  1465.4863 O.2      452 DT      0.0000
   1069 C5         3.0571    -3.4030  1465.6407 C.2      452 DT      0.0000
   1070 C7         2.3136    -4.6685  1465.9206 C.3      452 DT      0.0000
   1071 C6         4.3935    -3.3763  1465.5592 C.2      452 DT      0.0000
   1072 H5'        9.3967    -5.3526  1465.6091 H        452 DT      0.0000
   1073 H5''       9.1743    -5.3360  1463.8345 H        452 DT      0.0000
   1074 H4'        8.8830    -3.1186  1464.0886 H        452 DT      0.0000
   1075 H3'        8.8719    -3.6536  1466.9230 H        452 DT      0.0000
   1076 H2'        6.6283    -3.0149  1467.2069 H        452 DT      0.0000
   1077 H2''       7.3207    -1.3686  1467.0273 H        452 DT      0.0000
   1078 H1'        6.9122    -1.3379  1464.6600 H        452 DT      0.0000
   1079 H3         2.5620    -0.1801  1465.0476 H        452 DT      0.0000
   1080 H6         4.9460    -4.2937  1465.6996 H        452 DT      0.0000
   1081 H71        2.2716    -5.2737  1465.0151 H        452 DT      0.0000
   1082 H72        1.3008    -4.4302  1466.2454 H        452 DT      0.0000
   1083 H73        2.8256    -5.2246  1466.7059 H        452 DT      0.0000
   1084 P         10.5253    -1.7558  1467.2576 P.3      453 DG      0.0000
   1085 OP1       11.8362    -1.4540  1466.5426 O.co2    453 DG      0.0000
   1086 OP2       10.5350    -2.9969  1468.0111 O.co2    453 DG      0.0000
   1087 O5'        9.7813    -0.4370  1467.8671 O.3      453 DG      0.0000
   1088 C5'        9.5202     0.5252  1466.7765 C.3      453 DG      0.0000
   1089 C4'        8.5573     1.5516  1467.2966 C.3      453 DG      0.0000
   1090 O4'        7.1933     1.2793  1467.1160 O.3      453 DG      0.0000
   1091 C3'        8.7572     1.8403  1468.8046 C.3      453 DG      0.0000
   1092 O3'        8.9432     3.2677  1468.9635 O.3      453 DG      0.0000
   1093 C2'        7.5278     1.2449  1469.4572 C.3      453 DG      0.0000
   1094 C1'        6.4731     1.4476  1468.3757 C.3      453 DG      0.0000
   1095 N9         5.3491     0.5200  1468.5452 N.ar     453 DG      0.0000
   1096 C8         5.3768    -0.8053  1468.8814 C.ar     453 DG      0.0000
   1097 N7         4.1943    -1.3739  1468.9671 N.ar     453 DG      0.0000
   1098 C5         3.3249    -0.3366  1468.6371 C.ar     453 DG      0.0000
   1099 C6         1.9041    -0.3066  1468.5428 C.2      453 DG      0.0000
   1100 O6         1.1038    -1.2340  1468.7351 O.2      453 DG      0.0000
   1101 N1         1.3823     0.9219  1468.2077 N.am     453 DG      0.0000
   1102 C2         2.1762     2.0052  1467.9840 C.2      453 DG      0.0000
   1103 N2         1.4964     3.1173  1467.6751 N.pl3    453 DG      0.0000
   1104 N3         3.5052     2.0268  1468.0550 N.2      453 DG      0.0000
   1105 C4         4.0170     0.8277  1468.3816 C.ar     453 DG      0.0000
   1106 H5'       10.4505     1.0072  1466.4761 H        453 DG      0.0000
   1107 H5''       9.0815     0.0065  1465.9242 H        453 DG      0.0000
   1108 H4'        8.7676     2.4803  1466.7660 H        453 DG      0.0000
   1109 H3'        9.6453     1.3173  1469.1594 H        453 DG      0.0000
   1110 H2'        7.6696     0.1874  1469.6801 H        453 DG      0.0000
   1111 H2''       7.2651     1.7970  1470.3596 H        453 DG      0.0000
   1112 H1'        6.0992     2.4697  1468.4346 H        453 DG      0.0000
   1113 H8         6.2964    -1.3421  1469.0620 H        453 DG      0.0000
   1114 H1         0.3808     1.0230  1468.1254 H        453 DG      0.0000
   1115 H21        0.4878     3.0951  1467.6249 H        453 DG      0.0000
   1116 H22        1.9923     3.9780  1467.4925 H        453 DG      0.0000
   1117 P          9.2867     3.8986  1470.3519 P.3      454 DA      0.0000
   1118 OP1       10.7347     3.9997  1470.7073 O.co2    454 DA      0.0000
   1119 OP2        8.6565     2.7696  1471.2476 O.co2    454 DA      0.0000
   1120 O5'        8.3478     5.1521  1470.6010 O.3      454 DA      0.0000
   1121 C5'        7.6988     5.9133  1469.5720 C.3      454 DA      0.0000
   1122 C4'        6.2652     6.0878  1470.0463 C.3      454 DA      0.0000
   1123 O4'        5.5652     4.8654  1469.9559 O.3      454 DA      0.0000
   1124 C3'        6.0829     6.5994  1471.4753 C.3      454 DA      0.0000
   1125 O3'        5.1149     7.6677  1471.5276 O.3      454 DA      0.0000
   1126 C2'        5.6206     5.3356  1472.2108 C.3      454 DA      0.0000
   1127 C1'        4.7261     4.7418  1471.1332 C.3      454 DA      0.0000
   1128 N9         4.3791     3.3355  1471.3616 N.ar     454 DA      0.0000
   1129 C8         5.1872     2.2555  1471.5774 C.ar     454 DA      0.0000
   1130 N7         4.5349     1.1264  1471.7423 N.ar     454 DA      0.0000
   1131 C5         3.2034     1.4881  1471.6021 C.ar     454 DA      0.0000
   1132 C6         2.0164     0.7248  1471.6501 C.ar     454 DA      0.0000
   1133 N6         1.9735    -0.5914  1471.8699 N.pl3    454 DA      0.0000
   1134 N1         0.8620     1.4305  1471.4603 N.ar     454 DA      0.0000
   1135 C2         0.8827     2.7658  1471.2425 C.ar     454 DA      0.0000
   1136 N3         1.9598     3.5481  1471.1843 N.ar     454 DA      0.0000
   1137 C4         3.0865     2.8370  1471.3711 C.ar     454 DA      0.0000
   1138 H5'        7.7246     5.3745  1468.6248 H        454 DA      0.0000
   1139 H5''       8.1797     6.8856  1469.4642 H        454 DA      0.0000
   1140 H4'        5.7793     6.7974  1469.3765 H        454 DA      0.0000
   1141 H3'        7.0378     6.9387  1471.8768 H        454 DA      0.0000
   1142 H2'        6.4548     4.6783  1472.4563 H        454 DA      0.0000
   1143 H2''       5.0459     5.5887  1473.1017 H        454 DA      0.0000
   1144 H1'        3.8226     5.3408  1471.0187 H        454 DA      0.0000
   1145 H8         6.2646     2.3233  1471.6094 H        454 DA      0.0000
   1146 H2        -0.0735     3.2478  1471.1012 H        454 DA      0.0000
   1147 H61        2.7579    -1.2203  1471.7725 H        454 DA      0.0000
   1148 H62        1.1052    -1.0778  1471.6984 H        454 DA      0.0000
   1149 P          5.1689     8.8477  1472.6691 P.3      455 DA      0.0000
   1150 OP1        5.3581    10.1874  1472.0020 O.co2    455 DA      0.0000
   1151 OP2        6.3006     8.3885  1473.5000 O.co2    455 DA      0.0000
   1152 O5'        3.6649     8.8821  1473.1999 O.3      455 DA      0.0000
   1153 C5'        2.5442     9.1979  1472.3756 C.3      455 DA      0.0000
   1154 C4'        1.3427     8.4299  1472.8979 C.3      455 DA      0.0000
   1155 O4'        1.5934     7.0532  1472.9261 O.3      455 DA      0.0000
   1156 C3'        0.8056     8.8159  1474.2652 C.3      455 DA      0.0000
   1157 O3'       -0.5236     9.3302  1474.1874 O.3      455 DA      0.0000
   1158 C2'        0.9615     7.5348  1475.0939 C.3      455 DA      0.0000
   1159 C1'        0.9699     6.4391  1474.1001 C.3      455 DA      0.0000
   1160 N9         1.7130     5.1944  1474.3682 N.ar     455 DA      0.0000
   1161 C8         3.0651     4.9801  1474.4834 C.ar     455 DA      0.0000
   1162 N7         3.3967     3.7221  1474.6527 N.ar     455 DA      0.0000
   1163 C5         2.1790     3.0504  1474.6157 C.ar     455 DA      0.0000
   1164 C6         1.8546     1.6690  1474.7361 C.ar     455 DA      0.0000
   1165 N6         2.7264     0.6869  1474.9277 N.pl3    455 DA      0.0000
   1166 N1         0.5204     1.3627  1474.6379 N.ar     455 DA      0.0000
   1167 C2        -0.4064     2.3464  1474.4489 C.ar     455 DA      0.0000
   1168 N3        -0.1730     3.6494  1474.3410 N.ar     455 DA      0.0000
   1169 C4         1.1414     3.9350  1474.4329 C.ar     455 DA      0.0000
   1170 H5'        2.7495     8.9064  1471.3455 H        455 DA      0.0000
   1171 H5''       2.3443    10.2685  1472.4215 H        455 DA      0.0000
   1172 H4'        0.5334     8.5883  1472.1852 H        455 DA      0.0000
   1173 H3'        1.4519     9.5848  1474.6884 H        455 DA      0.0000
   1174 H2'        1.8964     7.5518  1475.6542 H        455 DA      0.0000
   1175 H2''       0.1170     7.4207  1475.7735 H        455 DA      0.0000
   1176 H1'       -0.0608     6.1836  1473.8541 H        455 DA      0.0000
   1177 H8         3.7918     5.7778  1474.4385 H        455 DA      0.0000
   1178 H2        -1.4375     2.0325  1474.3797 H        455 DA      0.0000
   1179 H61        3.6671     0.8573  1475.2539 H        455 DA      0.0000
   1180 H62        2.4396    -0.2633  1474.7409 H        455 DA      0.0000
   1181 P         -1.1463    10.4888  1475.1436 P.3      456 DT      0.0000
   1182 OP1       -1.9856    11.4808  1474.3463 O.co2    456 DT      0.0000
   1183 OP2       -0.1130    11.0849  1475.9642 O.co2    456 DT      0.0000
   1184 O5'       -2.3074     9.6552  1475.9573 O.3      456 DT      0.0000
   1185 C5'       -2.9910     8.7256  1475.0122 C.3      456 DT      0.0000
   1186 C4'       -3.1611     7.4514  1475.7999 C.3      456 DT      0.0000
   1187 O4'       -1.9594     6.7395  1475.9919 O.3      456 DT      0.0000
   1188 C3'       -3.7061     7.7113  1477.2165 C.3      456 DT      0.0000
   1189 O3'       -5.1049     7.4941  1477.2182 O.3      456 DT      0.0000
   1190 C2'       -2.9090     6.7678  1478.1138 C.3      456 DT      0.0000
   1191 C1'       -2.2733     5.8483  1477.1491 C.3      456 DT      0.0000
   1192 N1        -1.0399     5.1566  1477.4889 N.am     456 DT      0.0000
   1193 C2        -1.1123     3.7740  1477.6268 C.2      456 DT      0.0000
   1194 O2        -2.1949     3.2093  1477.5388 O.2      456 DT      0.0000
   1195 N3         0.0387     3.0910  1477.8808 N.am     456 DT      0.0000
   1196 C4         1.2511     3.7077  1478.0010 C.2      456 DT      0.0000
   1197 O4         2.2783     3.0014  1478.2562 O.2      456 DT      0.0000
   1198 C5         1.3047     5.1302  1477.8294 C.2      456 DT      0.0000
   1199 C7         2.6187     5.8558  1477.9169 C.3      456 DT      0.0000
   1200 C6         0.1670     5.7987  1477.5736 C.2      456 DT      0.0000
   1201 H5'       -3.9593     9.1251  1474.7106 H        456 DT      0.0000
   1202 H5''      -2.3656     8.5486  1474.1372 H        456 DT      0.0000
   1203 H4'       -3.8643     6.8082  1475.2708 H        456 DT      0.0000
   1204 H3'       -3.4991     8.7430  1477.5008 H        456 DT      0.0000
   1205 H2'       -2.1594     7.3131  1478.6872 H        456 DT      0.0000
   1206 H2''      -3.5757     6.2206  1478.7802 H        456 DT      0.0000
   1207 H1'       -3.0107     5.1110  1476.8318 H        456 DT      0.0000
   1208 H3        -0.0066     2.0874  1477.9845 H        456 DT      0.0000
   1209 H6         0.2054     6.8687  1477.4315 H        456 DT      0.0000
   1210 H71        3.4148     5.1425  1478.1300 H        456 DT      0.0000
   1211 H72        2.8219     6.3544  1476.9691 H        456 DT      0.0000
   1212 H73        2.5719     6.5971  1478.7147 H        456 DT      0.0000
   1213 P         -6.1436     7.8200  1478.3248 P.3      457 DT      0.0000
   1214 OP1       -7.5625     7.9490  1477.7127 O.co2    457 DT      0.0000
   1215 OP2       -5.6971     9.0892  1478.9548 O.co2    457 DT      0.0000
   1216 O5'       -6.2231     6.4832  1479.2071 O.3      457 DT      0.0000
   1217 C5'       -6.8574     5.3869  1478.4954 C.3      457 DT      0.0000
   1218 C4'       -6.5008     4.1087  1479.1715 C.3      457 DT      0.0000
   1219 O4'       -5.1094     3.8153  1479.1482 O.3      457 DT      0.0000
   1220 C3'       -6.9469     4.0212  1480.6381 C.3      457 DT      0.0000
   1221 O3'       -7.5116     2.7510  1480.9022 O.3      457 DT      0.0000
   1222 C2'       -5.5927     4.1554  1481.3745 C.3      457 DT      0.0000
   1223 C1'       -4.7845     3.2466  1480.4709 C.3      457 DT      0.0000
   1224 N1        -3.3672     3.3401  1480.7686 N.am     457 DT      0.0000
   1225 C2        -2.6250     2.1715  1480.8234 C.2      457 DT      0.0000
   1226 O2        -3.1932     1.0949  1480.6350 O.2      457 DT      0.0000
   1227 N3        -1.2880     2.2669  1481.0893 N.am     457 DT      0.0000
   1228 C4        -0.6730     3.4634  1481.2964 C.2      457 DT      0.0000
   1229 O4         0.5714     3.4750  1481.5197 O.2      457 DT      0.0000
   1230 C5        -1.4456     4.6594  1481.2313 C.2      457 DT      0.0000
   1231 C7        -0.8395     6.0164  1481.4412 C.3      457 DT      0.0000
   1232 C6        -2.7573     4.5474  1480.9702 C.2      457 DT      0.0000
   1233 H5'       -7.9393     5.5189  1478.5078 H        457 DT      0.0000
   1234 H5''      -6.5033     5.3665  1477.4646 H        457 DT      0.0000
   1235 H4'       -7.0075     3.3079  1478.6330 H        457 DT      0.0000
   1236 H3'       -7.6303     4.8288  1480.9006 H        457 DT      0.0000
   1237 H2'       -5.2198     5.1796  1481.3732 H        457 DT      0.0000
   1238 H2''      -5.6514     3.7566  1482.3872 H        457 DT      0.0000
   1239 H1'       -5.1304     2.2158  1480.5465 H        457 DT      0.0000
   1240 H3        -0.7377     1.4212  1481.1338 H        457 DT      0.0000
   1241 H6        -3.3545     5.4457  1480.9171 H        457 DT      0.0000
   1242 H71        0.2271     5.9117  1481.6401 H        457 DT      0.0000
   1243 H72       -0.9842     6.6211  1480.5459 H        457 DT      0.0000
   1244 H73       -1.3213     6.5023  1482.2896 H        457 DT      0.0000
   1245 P         -8.8535     2.2100  1481.5101 P.3      458 DC      0.0000
   1246 OP1       -9.7357     1.5923  1480.4422 O.co2    458 DC      0.0000
   1247 OP2       -9.4353     3.3480  1482.2451 O.co2    458 DC      0.0000
   1248 O5'       -8.1914     0.9693  1482.3361 O.3      458 DC      0.0000
   1249 C5'       -7.4027     0.2564  1481.3139 C.3      458 DC      0.0000
   1250 C4'       -6.6948    -0.8707  1482.0104 C.3      458 DC      0.0000
   1251 O4'       -5.3518    -0.5902  1482.2573 O.3      458 DC      0.0000
   1252 C3'       -7.3503    -1.3469  1483.3019 C.3      458 DC      0.0000
   1253 O3'       -7.6453    -2.7351  1483.2222 O.3      458 DC      0.0000
   1254 C2'       -6.3383    -0.8804  1484.3506 C.3      458 DC      0.0000
   1255 C1'       -5.0355    -0.9065  1483.6542 C.3      458 DC      0.0000
   1256 N1        -4.0795     0.1545  1483.9863 N.am     458 DC      0.0000
   1257 C2        -2.7745    -0.2607  1484.2421 C.2      458 DC      0.0000
   1258 O2        -2.4699    -1.4574  1484.2466 O.2      458 DC      0.0000
   1259 N3        -1.8438     0.7109  1484.5159 N.2      458 DC      0.0000
   1260 C4        -2.1722     2.0347  1484.5060 C.2      458 DC      0.0000
   1261 N4        -1.2016     2.8985  1484.7829 N.pl3    458 DC      0.0000
   1262 C5        -3.4957     2.4417  1484.2280 C.2      458 DC      0.0000
   1263 C6        -4.3986     1.4752  1483.9632 C.2      458 DC      0.0000
   1264 H5'       -8.0619    -0.1373  1480.5402 H        458 DC      0.0000
   1265 H5''      -6.6733     0.9337  1480.8697 H        458 DC      0.0000
   1266 H4'       -6.7126    -1.7176  1481.3244 H        458 DC      0.0000
   1267 H3'       -8.2813    -0.7985  1483.4451 H        458 DC      0.0000
   1268 H2'       -6.5730     0.1289  1484.6885 H        458 DC      0.0000
   1269 H2''      -6.3275    -1.5682  1485.1962 H        458 DC      0.0000
   1270 H1'       -4.5704    -1.8889  1483.7352 H        458 DC      0.0000
   1271 H5        -3.7738     3.4852  1484.2274 H        458 DC      0.0000
   1272 H6        -5.4122     1.7615  1483.7242 H        458 DC      0.0000
   1273 H41       -0.2696     2.5642  1484.9821 H        458 DC      0.0000
   1274 H42       -1.3958     3.8896  1484.7942 H        458 DC      0.0000
   1275 P         -8.6715    -3.5560  1484.1742 P.3      459 DA      0.0000
   1276 OP1       -9.1479    -4.7573  1483.3805 O.co2    459 DA      0.0000
   1277 OP2       -9.7878    -2.6524  1484.5198 O.co2    459 DA      0.0000
   1278 O5'       -7.7534    -3.9837  1485.4712 O.3      459 DA      0.0000
   1279 C5'       -6.5013    -4.6751  1485.1760 C.3      459 DA      0.0000
   1280 C4'       -5.7274    -4.9120  1486.4313 C.3      459 DA      0.0000
   1281 O4'       -4.6649    -3.9849  1486.6734 O.3      459 DA      0.0000
   1282 C3'       -6.5361    -4.8265  1487.7365 C.3      459 DA      0.0000
   1283 O3'       -5.8113    -5.5025  1488.7664 O.3      459 DA      0.0000
   1284 C2'       -6.5025    -3.3001  1487.9511 C.3      459 DA      0.0000
   1285 C1'       -4.9905    -3.1314  1487.7678 C.3      459 DA      0.0000
   1286 N9        -4.6749    -1.7160  1487.6735 N.ar     459 DA      0.0000
   1287 C8        -5.4935    -0.6269  1487.5577 C.ar     459 DA      0.0000
   1288 N7        -4.8720     0.5386  1487.5391 N.ar     459 DA      0.0000
   1289 C5        -3.5343     0.1854  1487.6466 C.ar     459 DA      0.0000
   1290 C6        -2.3481     0.9592  1487.6811 C.ar     459 DA      0.0000
   1291 N6        -2.3106     2.2768  1487.5959 N.pl3    459 DA      0.0000
   1292 N1        -1.1803     0.2641  1487.8137 N.ar     459 DA      0.0000
   1293 C2        -1.1727    -1.1030  1487.8939 C.ar     459 DA      0.0000
   1294 N3        -2.2410    -1.8962  1487.8641 N.ar     459 DA      0.0000
   1295 C4        -3.3912    -1.1894  1487.7410 C.ar     459 DA      0.0000
   1296 H5'       -6.7226    -5.6328  1484.7048 H        459 DA      0.0000
   1297 H5''      -5.9058    -4.0673  1484.4947 H        459 DA      0.0000
   1298 H4'       -5.2929    -5.9099  1486.3724 H        459 DA      0.0000
   1299 H3'       -7.5507    -5.2083  1487.6229 H        459 DA      0.0000
   1300 H2'       -7.0783    -2.7589  1487.2003 H        459 DA      0.0000
   1301 H2''      -6.8137    -3.0328  1488.9610 H        459 DA      0.0000
   1302 H1'       -4.4993    -3.5254  1488.6575 H        459 DA      0.0000
   1303 H8        -6.5677    -0.7130  1487.4867 H        459 DA      0.0000
   1304 H2        -0.2096    -1.5823  1487.9904 H        459 DA      0.0000
   1305 H61       -1.6019     2.9736  1487.7759 H        459 DA      0.0000
   1306 H62       -3.1835     2.6757  1487.2812 H        459 DA      0.0000
   1307 P         -5.8523    -7.0960  1488.9069 P.3      460 DC      0.0000
   1308 OP1       -6.2962    -7.7842  1487.6618 O.co2    460 DC      0.0000
   1309 OP2       -6.8066    -7.2892  1490.0498 O.co2    460 DC      0.0000
   1310 O5'       -4.3390    -7.4759  1489.1901 O.3      460 DC      0.0000
   1311 C5'       -3.3738    -7.6023  1488.1024 C.3      460 DC      0.0000
   1312 C4'       -2.0656    -7.2262  1488.8073 C.3      460 DC      0.0000
   1313 O4'       -2.1359    -5.8542  1489.1193 O.3      460 DC      0.0000
   1314 C3'       -1.8348    -7.9751  1490.1172 C.3      460 DC      0.0000
   1315 O3'       -0.5342    -8.6026  1490.1851 O.3      460 DC      0.0000
   1316 C2'       -2.0509    -6.9065  1491.1994 C.3      460 DC      0.0000
   1317 C1'       -1.6087    -5.6726  1490.5232 C.3      460 DC      0.0000
   1318 N1        -2.1642    -4.3687  1490.8761 N.am     460 DC      0.0000
   1319 C2        -1.2565    -3.3115  1490.8492 C.2      460 DC      0.0000
   1320 O2        -0.0602    -3.4718  1490.6423 O.2      460 DC      0.0000
   1321 N3        -1.7405    -2.0659  1491.1023 N.2      460 DC      0.0000
   1322 C4        -3.0541    -1.8290  1491.3357 C.2      460 DC      0.0000
   1323 N4        -3.4072    -0.5660  1491.5666 N.pl3    460 DC      0.0000
   1324 C5        -3.9728    -2.9145  1491.3422 C.2      460 DC      0.0000
   1325 C6        -3.4880    -4.1408  1491.0928 C.2      460 DC      0.0000
   1326 H5'       -3.3394    -8.6216  1487.7175 H        460 DC      0.0000
   1327 H5''      -3.5983    -6.8957  1487.3033 H        460 DC      0.0000
   1328 H4'       -1.2264    -7.4034  1488.1346 H        460 DC      0.0000
   1329 H3'       -2.6014    -8.7428  1490.2231 H        460 DC      0.0000
   1330 H2'       -3.1006    -6.8436  1491.4864 H        460 DC      0.0000
   1331 H2''      -1.4274    -7.1111  1492.0697 H        460 DC      0.0000
   1332 H1'       -0.5198    -5.6237  1490.5100 H        460 DC      0.0000
   1333 H5        -5.0227    -2.7576  1491.5407 H        460 DC      0.0000
   1334 H6        -4.1723    -4.9757  1491.0631 H        460 DC      0.0000
   1335 H41       -2.7089     0.1637  1491.5555 H        460 DC      0.0000
   1336 H42       -4.3733    -0.3377  1491.7527 H        460 DC      0.0000
   1337 P          1.8719     8.2790  1493.1446 P.3      460 DG      0.0000
   1338 OP1        2.1338     9.7407  1493.3234 O.co2    460 DG      0.0000
   1339 OP2        0.8441     7.9856  1492.0598 O.co2    460 DG      0.0000
   1340 O5'        3.3015     7.4899  1492.9374 O.3      460 DG      0.0000
   1341 C5'        3.8313     6.6723  1494.0332 C.3      460 DG      0.0000
   1342 C4'        4.4658     5.4367  1493.3989 C.3      460 DG      0.0000
   1343 O4'        3.5598     4.3716  1493.3031 O.3      460 DG      0.0000
   1344 C3'        5.0154     5.6603  1491.9925 C.3      460 DG      0.0000
   1345 O3'        6.2659     4.9842  1491.7256 O.3      460 DG      0.0000
   1346 C2'        3.8853     5.1328  1491.0903 C.3      460 DG      0.0000
   1347 C1'        3.3898     3.9559  1491.9141 C.3      460 DG      0.0000
   1348 N9         1.9694     3.6779  1491.6408 N.ar     460 DG      0.0000
   1349 C8         0.9461     4.5823  1491.4841 C.ar     460 DG      0.0000
   1350 N7        -0.2191     4.0331  1491.2657 N.ar     460 DG      0.0000
   1351 C5         0.0496     2.6697  1491.2905 C.ar     460 DG      0.0000
   1352 C6        -0.8015     1.5433  1491.1340 C.2      460 DG      0.0000
   1353 O6        -2.0249     1.5618  1490.9372 O.2      460 DG      0.0000
   1354 N1        -0.1588     0.3330  1491.2210 N.am     460 DG      0.0000
   1355 C2         1.1745     0.2263  1491.4416 C.2      460 DG      0.0000
   1356 N2         1.6570    -1.0117  1491.5050 N.pl3    460 DG      0.0000
   1357 N3         2.0191     1.2528  1491.5993 N.2      460 DG      0.0000
   1358 C4         1.3878     2.4400  1491.5161 C.ar     460 DG      0.0000
   1359 H5'        4.5807     7.2338  1494.5909 H        460 DG      0.0000
   1360 H5''       3.0210     6.3732  1494.6981 H        460 DG      0.0000
   1361 H4'        5.2915     5.1190  1494.0356 H        460 DG      0.0000
   1362 H3'        5.1417     6.7295  1491.8221 H        460 DG      0.0000
   1363 H2'        3.1043     5.8797  1490.9476 H        460 DG      0.0000
   1364 H2''       4.2797     4.7963  1490.1315 H        460 DG      0.0000
   1365 H1'        3.9931     3.0716  1491.7088 H        460 DG      0.0000
   1366 H8         1.0922     5.6511  1491.5369 H        460 DG      0.0000
   1367 H1        -0.7015    -0.5123  1491.1162 H        460 DG      0.0000
   1368 H21        1.0381    -1.8014  1491.3899 H        460 DG      0.0000
   1369 H22        2.6424    -1.1619  1491.6681 H        460 DG      0.0000
   1370 P          6.5082     4.5503  1490.2021 P.3      459 DT      0.0000
   1371 OP1        7.9604     4.4931  1489.8112 O.co2    459 DT      0.0000
   1372 OP2        5.8062     5.6537  1489.5015 O.co2    459 DT      0.0000
   1373 O5'        5.8459     3.0972  1490.0712 O.3      459 DT      0.0000
   1374 C5'        6.7147     1.9503  1490.3388 C.3      459 DT      0.0000
   1375 C4'        6.1765     0.7557  1489.5818 C.3      459 DT      0.0000
   1376 O4'        4.7610     0.7115  1489.5545 O.3      459 DT      0.0000
   1377 C3'        6.6190     0.7230  1488.1271 C.3      459 DT      0.0000
   1378 O3'        6.9154    -0.6009  1487.6319 O.3      459 DT      0.0000
   1379 C2'        5.4449     1.3451  1487.4042 C.3      459 DT      0.0000
   1380 C1'        4.3074     0.7047  1488.1823 C.3      459 DT      0.0000
   1381 N1         3.1405     1.5881  1488.0310 N.am     459 DT      0.0000
   1382 C2         1.8929     0.9821  1488.1378 C.2      459 DT      0.0000
   1383 O2         1.8029    -0.2262  1488.3275 O.2      459 DT      0.0000
   1384 N3         0.7953     1.7879  1488.0176 N.am     459 DT      0.0000
   1385 C4         0.9055     3.1286  1487.8000 C.2      459 DT      0.0000
   1386 O4        -0.1755     3.7983  1487.7025 O.2      459 DT      0.0000
   1387 C5         2.1965     3.7204  1487.6936 C.2      459 DT      0.0000
   1388 C7         2.3300     5.1987  1487.4647 C.3      459 DT      0.0000
   1389 C6         3.2650     2.9287  1487.8154 C.2      459 DT      0.0000
   1390 H5'        7.7286     2.1710  1490.0051 H        459 DT      0.0000
   1391 H5''       6.7192     1.7353  1491.4074 H        459 DT      0.0000
   1392 H4'        6.5377    -0.1496  1490.0697 H        459 DT      0.0000
   1393 H3'        7.4959     1.3584  1488.0031 H        459 DT      0.0000
   1394 H2'        5.4397     2.4312  1487.4958 H        459 DT      0.0000
   1395 H2''       5.4235     1.0404  1486.3578 H        459 DT      0.0000
   1396 H1'        4.0970    -0.3057  1487.8317 H        459 DT      0.0000
   1397 H3        -0.1246     1.3775  1488.0923 H        459 DT      0.0000
   1398 H6         4.2520     3.3608  1487.7413 H        459 DT      0.0000
   1399 H71        1.3389     5.6472  1487.3960 H        459 DT      0.0000
   1400 H72        2.8746     5.6471  1488.2956 H        459 DT      0.0000
   1401 H73        2.8737     5.3750  1486.5366 H        459 DT      0.0000
   1402 P          8.3787    -0.5149  1486.8536 P.3      458 DG      0.0000
   1403 OP1        9.5369    -0.8777  1487.7248 O.co2    458 DG      0.0000
   1404 OP2        8.3275     0.9119  1486.4480 O.co2    458 DG      0.0000
   1405 O5'        8.2019    -1.6791  1485.7727 O.3      458 DG      0.0000
   1406 C5'        8.3625    -3.0567  1486.1962 C.3      458 DG      0.0000
   1407 C4'        7.0836    -3.7532  1485.7485 C.3      458 DG      0.0000
   1408 O4'        5.9713    -2.9239  1486.0192 O.3      458 DG      0.0000
   1409 C3'        7.0436    -4.1025  1484.2607 C.3      458 DG      0.0000
   1410 O3'        6.8141    -5.4846  1484.0522 O.3      458 DG      0.0000
   1411 C2'        5.9926    -3.1708  1483.6840 C.3      458 DG      0.0000
   1412 C1'        5.0963    -2.9040  1484.8702 C.3      458 DG      0.0000
   1413 N9         4.4383    -1.6005  1484.7466 N.ar     458 DG      0.0000
   1414 C8         5.0138    -0.3717  1484.5877 C.ar     458 DG      0.0000
   1415 N7         4.1487     0.6100  1484.5097 N.ar     458 DG      0.0000
   1416 C5         2.9134    -0.0163  1484.6472 C.ar     458 DG      0.0000
   1417 C6         1.5885     0.4942  1484.6567 C.2      458 DG      0.0000
   1418 O6         1.2464     1.6682  1484.5576 O.2      458 DG      0.0000
   1419 N1         0.6155    -0.4528  1484.8057 N.am     458 DG      0.0000
   1420 C2         0.9105    -1.7881  1484.9385 C.2      458 DG      0.0000
   1421 N2        -0.1347    -2.6048  1485.0742 N.pl3    458 DG      0.0000
   1422 N3         2.1313    -2.3331  1484.9428 N.2      458 DG      0.0000
   1423 C4         3.0849    -1.3826  1484.7921 C.ar     458 DG      0.0000
   1424 H5'        9.2323    -3.5066  1485.7175 H        458 DG      0.0000
   1425 H5''       8.4601    -3.1088  1487.2806 H        458 DG      0.0000
   1426 H4'        6.9742    -4.6740  1486.3215 H        458 DG      0.0000
   1427 H3'        8.0077    -3.8452  1483.8222 H        458 DG      0.0000
   1428 H2'        6.4438    -2.2487  1483.3177 H        458 DG      0.0000
   1429 H2''       5.4367    -3.6670  1482.8885 H        458 DG      0.0000
   1430 H1'        4.3486    -3.6924  1484.9572 H        458 DG      0.0000
   1431 H8         6.0820    -0.2229  1484.5317 H        458 DG      0.0000
   1432 H1        -0.3517    -0.1622  1484.8185 H        458 DG      0.0000
   1433 H21       -1.0723    -2.2292  1485.0752 H        458 DG      0.0000
   1434 H22        0.0111    -3.5989  1485.1760 H        458 DG      0.0000
   1435 P          5.8000    -6.3320  1483.1859 P.3      457 DA      0.0000
   1436 OP1        5.3453    -7.5713  1483.9673 O.co2    457 DA      0.0000
   1437 OP2        6.5528    -6.7270  1481.9932 O.co2    457 DA      0.0000
   1438 O5'        4.4690    -5.4089  1483.0111 O.3      457 DA      0.0000
   1439 C5'        3.5599    -5.5411  1484.1676 C.3      457 DA      0.0000
   1440 C4'        2.2747    -6.1291  1483.6398 C.3      457 DA      0.0000
   1441 O4'        1.2885    -5.1533  1483.4175 O.3      457 DA      0.0000
   1442 C3'        2.4516    -6.8412  1482.2993 C.3      457 DA      0.0000
   1443 O3'        1.7203    -8.0415  1482.2241 O.3      457 DA      0.0000
   1444 C2'        2.1158    -5.7463  1481.3027 C.3      457 DA      0.0000
   1445 C1'        1.2339    -4.7675  1482.0266 C.3      457 DA      0.0000
   1446 N9         1.6650    -3.3772  1481.8011 N.ar     457 DA      0.0000
   1447 C8         2.9386    -2.8847  1481.6147 C.ar     457 DA      0.0000
   1448 N7         2.9942    -1.5874  1481.4188 N.ar     457 DA      0.0000
   1449 C5         1.6642    -1.1955  1481.5057 C.ar     457 DA      0.0000
   1450 C6         1.0548     0.0766  1481.4000 C.ar     457 DA      0.0000
   1451 N6         1.7227     1.1967  1481.1875 N.pl3    457 DA      0.0000
   1452 N1        -0.3010     0.1030  1481.5237 N.ar     457 DA      0.0000
   1453 C2        -1.0168    -1.0383  1481.7483 C.ar     457 DA      0.0000
   1454 N3        -0.5057    -2.2623  1481.8641 N.ar     457 DA      0.0000
   1455 C4         0.8423    -2.2758  1481.7280 C.ar     457 DA      0.0000
   1456 H5'        3.9968    -6.2026  1484.9157 H        457 DA      0.0000
   1457 H5''       3.3686    -4.5609  1484.6043 H        457 DA      0.0000
   1458 H4'        1.8960    -6.8468  1484.3675 H        457 DA      0.0000
   1459 H3'        3.5080    -7.0848  1482.1862 H        457 DA      0.0000
   1460 H2'        1.5887    -6.1658  1480.4458 H        457 DA      0.0000
   1461 H2''       3.0287    -5.2510  1480.9722 H        457 DA      0.0000
   1462 H1'        0.2109    -4.8823  1481.6684 H        457 DA      0.0000
   1463 H8         3.8170    -3.5128  1481.6286 H        457 DA      0.0000
   1464 H2        -2.0884    -0.9396  1481.8395 H        457 DA      0.0000
   1465 H61        1.3641     2.0868  1481.5030 H        457 DA      0.0000
   1466 H62        2.6073     1.1623  1480.7013 H        457 DA      0.0000
   1467 P          0.9061    -8.6978  1481.0395 P.3      456 DA      0.0000
   1468 OP1        0.0572    -9.8945  1481.5594 O.co2    456 DA      0.0000
   1469 OP2        1.9546    -9.2149  1480.1058 O.co2    456 DA      0.0000
   1470 O5'       -0.1371    -7.6296  1480.5368 O.3      456 DA      0.0000
   1471 C5'       -1.5046    -7.6877  1480.9927 C.3      456 DA      0.0000
   1472 C4'       -2.2518    -6.5748  1480.2907 C.3      456 DA      0.0000
   1473 O4'       -1.5289    -5.3830  1480.1700 O.3      456 DA      0.0000
   1474 C3'       -2.7164    -6.9462  1478.8832 C.3      456 DA      0.0000
   1475 O3'       -4.1553    -6.9983  1478.8518 O.3      456 DA      0.0000
   1476 C2'       -2.0056    -5.9334  1477.9836 C.3      456 DA      0.0000
   1477 C1'       -1.8207    -4.7477  1478.8814 C.3      456 DA      0.0000
   1478 N9        -0.6908    -3.8743  1478.5818 N.ar     456 DA      0.0000
   1479 C8         0.6359    -4.1986  1478.3871 C.ar     456 DA      0.0000
   1480 N7         1.4115    -3.1576  1478.1816 N.ar     456 DA      0.0000
   1481 C5         0.5540    -2.0773  1478.2562 C.ar     456 DA      0.0000
   1482 C6         0.7731    -0.6879  1478.1227 C.ar     456 DA      0.0000
   1483 N6         1.9625    -0.1458  1477.8795 N.pl3    456 DA      0.0000
   1484 N1        -0.3426     0.0964  1478.2715 N.ar     456 DA      0.0000
   1485 C2        -1.5591    -0.4238  1478.5240 C.ar     456 DA      0.0000
   1486 N3        -1.8409    -1.7228  1478.6629 N.ar     456 DA      0.0000
   1487 C4        -0.7398    -2.4929  1478.5157 C.ar     456 DA      0.0000
   1488 H5'       -1.9435    -8.6522  1480.7375 H        456 DA      0.0000
   1489 H5''      -1.5425    -7.5368  1482.0715 H        456 DA      0.0000
   1490 H4'       -3.1421    -6.3575  1480.8809 H        456 DA      0.0000
   1491 H3'       -2.3336    -7.9393  1478.6482 H        456 DA      0.0000
   1492 H2'       -1.0447    -6.3197  1477.6437 H        456 DA      0.0000
   1493 H2''      -2.6343    -5.6726  1477.1323 H        456 DA      0.0000
   1494 H1'       -2.7427    -4.1694  1478.9425 H        456 DA      0.0000
   1495 H8         1.0033    -5.2141  1478.4021 H        456 DA      0.0000
   1496 H2        -2.3801     0.2708  1478.6231 H        456 DA      0.0000
   1497 H61        2.0672     0.8148  1478.1735 H        456 DA      0.0000
   1498 H62        2.7090    -0.6585  1477.4322 H        456 DA      0.0000
   1499 P         -4.8926    -7.3592  1477.4668 P.3      455 DT      0.0000
   1500 OP1       -6.3457    -7.7175  1477.5249 O.co2    455 DT      0.0000
   1501 OP2       -3.9878    -8.4332  1476.9542 O.co2    455 DT      0.0000
   1502 O5'       -4.8113    -5.8504  1476.7636 O.3      455 DT      0.0000
   1503 C5'       -5.1082    -4.8415  1477.7760 C.3      455 DT      0.0000
   1504 C4'       -5.5682    -3.5934  1477.0930 C.3      455 DT      0.0000
   1505 O4'       -4.5549    -2.6498  1476.9126 O.3      455 DT      0.0000
   1506 C3'       -6.2049    -3.8273  1475.7318 C.3      455 DT      0.0000
   1507 O3'       -7.3030    -2.9464  1475.4645 O.3      455 DT      0.0000
   1508 C2'       -4.9740    -3.6252  1474.8384 C.3      455 DT      0.0000
   1509 C1'       -4.3261    -2.4160  1475.4784 C.3      455 DT      0.0000
   1510 N1        -2.8691    -2.4052  1475.2485 N.am     455 DT      0.0000
   1511 C2        -2.2504    -1.1735  1475.1268 C.2      455 DT      0.0000
   1512 O2        -2.9007    -0.1277  1475.1636 O.2      455 DT      0.0000
   1513 N3        -0.8924    -1.1508  1474.9594 N.am     455 DT      0.0000
   1514 C4        -0.1546    -2.2923  1474.9109 C.2      455 DT      0.0000
   1515 O4         1.0938    -2.1780  1474.7254 O.2      455 DT      0.0000
   1516 C5        -0.8077    -3.5479  1475.0593 C.2      455 DT      0.0000
   1517 C7        -0.0209    -4.8359  1475.0072 C.3      455 DT      0.0000
   1518 C6        -2.1336    -3.5528  1475.2323 C.2      455 DT      0.0000
   1519 H5'       -5.8931    -5.2072  1478.4381 H        455 DT      0.0000
   1520 H5''      -4.2097    -4.6306  1478.3560 H        455 DT      0.0000
   1521 H4'       -6.3257    -3.1367  1477.7300 H        455 DT      0.0000
   1522 H3'       -6.5415    -4.8615  1475.6597 H        455 DT      0.0000
   1523 H2'       -4.3142    -4.4923  1474.8690 H        455 DT      0.0000
   1524 H2''      -5.2735    -3.4048  1473.8138 H        455 DT      0.0000
   1525 H1'       -4.7913    -1.4885  1475.1445 H        455 DT      0.0000
   1526 H3        -0.4244    -0.2603  1474.8693 H        455 DT      0.0000
   1527 H6        -2.6390    -4.4982  1475.3637 H        455 DT      0.0000
   1528 H71       -0.0737    -5.2540  1474.0020 H        455 DT      0.0000
   1529 H72       -0.4408    -5.5468  1475.7188 H        455 DT      0.0000
   1530 H73        1.0196    -4.6366  1475.2637 H        455 DT      0.0000
   1531 P         -7.9651    -3.0735  1473.9746 P.3      454 DT      0.0000
   1532 OP1       -9.3922    -3.6044  1474.1225 O.co2    454 DT      0.0000
   1533 OP2       -7.1077    -4.1087  1473.3047 O.co2    454 DT      0.0000
   1534 O5'       -7.9269    -1.6678  1473.3225 O.3      454 DT      0.0000
   1535 C5'       -7.9939    -0.4557  1474.0739 C.3      454 DT      0.0000
   1536 C4'       -7.2465     0.6012  1473.3259 C.3      454 DT      0.0000
   1537 O4'       -5.8481     0.5175  1473.2689 O.3      454 DT      0.0000
   1538 C3'       -7.6558     0.8608  1471.8599 C.3      454 DT      0.0000
   1539 O3'       -7.4524     2.2733  1471.7561 O.3      454 DT      0.0000
   1540 C2'       -6.5874     0.0672  1471.0961 C.3      454 DT      0.0000
   1541 C1'       -5.3889     0.5740  1471.8719 C.3      454 DT      0.0000
   1542 N1        -4.1703    -0.2335  1471.7657 N.am     454 DT      0.0000
   1543 C2        -2.9693     0.4887  1471.7651 C.2      454 DT      0.0000
   1544 O2        -2.9678     1.7208  1471.8081 O.2      454 DT      0.0000
   1545 N3        -1.8112    -0.2323  1471.7116 N.am     454 DT      0.0000
   1546 C4        -1.7918    -1.5941  1471.6519 C.2      454 DT      0.0000
   1547 O4        -0.6647    -2.1713  1471.5895 O.2      454 DT      0.0000
   1548 C5        -3.0246    -2.3018  1471.6601 C.2      454 DT      0.0000
   1549 C7        -3.0178    -3.8149  1471.5987 C.3      454 DT      0.0000
   1550 C6        -4.1551    -1.5924  1471.7266 C.2      454 DT      0.0000
   1551 H5'       -9.0344    -0.1548  1474.1961 H        454 DT      0.0000
   1552 H5''      -7.5377    -0.6050  1475.0525 H        454 DT      0.0000
   1553 H4'       -7.4582     1.5315  1473.8532 H        454 DT      0.0000
   1554 H3'       -8.6752     0.5500  1471.6312 H        454 DT      0.0000
   1555 H2'       -6.5443     0.3356  1470.0406 H        454 DT      0.0000
   1556 H2''      -6.7206    -1.0066  1471.2277 H        454 DT      0.0000
   1557 H1'       -5.1756     1.6059  1471.5928 H        454 DT      0.0000
   1558 H3        -0.9317     0.2643  1471.7165 H        454 DT      0.0000
   1559 H6        -5.0966    -2.1210  1471.7503 H        454 DT      0.0000
   1560 H71       -1.9893    -4.1725  1471.5499 H        454 DT      0.0000
   1561 H72       -3.5594    -4.1448  1470.7121 H        454 DT      0.0000
   1562 H73       -3.5003    -4.2169  1472.4896 H        454 DT      0.0000
   1563 P         -7.9364     3.2019  1470.6099 P.3      453 DC      0.0000
   1564 OP1       -8.6284     4.4227  1471.2190 O.co2    453 DC      0.0000
   1565 OP2       -8.9287     2.3997  1469.8280 O.co2    453 DC      0.0000
   1566 O5'       -6.5268     3.5490  1469.8705 O.3      453 DC      0.0000
   1567 C5'       -5.6637     4.4857  1470.5950 C.3      453 DC      0.0000
   1568 C4'       -4.9486     5.2950  1469.5445 C.3      453 DC      0.0000
   1569 O4'       -3.6458     4.8188  1469.2992 O.3      453 DC      0.0000
   1570 C3'       -5.6380     5.3474  1468.1800 C.3      453 DC      0.0000
   1571 O3'       -5.4636     6.5760  1467.4708 O.3      453 DC      0.0000
   1572 C2'       -5.0043     4.1294  1467.4939 C.3      453 DC      0.0000
   1573 C1'       -3.5781     4.1490  1468.0405 C.3      453 DC      0.0000
   1574 N1        -3.1151     2.7463  1468.1583 N.am     453 DC      0.0000
   1575 C2        -1.7375     2.5331  1468.1755 C.2      453 DC      0.0000
   1576 O2        -0.9420     3.4800  1468.1069 O.2      453 DC      0.0000
   1577 N3        -1.3053     1.2384  1468.2788 N.2      453 DC      0.0000
   1578 C4        -2.1690     0.1920  1468.3495 C.2      453 DC      0.0000
   1579 N4        -1.6987    -1.0530  1468.4515 N.pl3    453 DC      0.0000
   1580 C5        -3.5703     0.4374  1468.3244 C.2      453 DC      0.0000
   1581 C6        -3.9940     1.7094  1468.2308 C.2      453 DC      0.0000
   1582 H5'       -6.2631     5.1372  1471.2309 H        453 DC      0.0000
   1583 H5''      -4.9412     3.9366  1471.1989 H        453 DC      0.0000
   1584 H4'       -4.8644     6.3173  1469.9132 H        453 DC      0.0000
   1585 H3'       -6.7039     5.1638  1468.3142 H        453 DC      0.0000
   1586 H2'       -5.0122     4.2396  1466.4095 H        453 DC      0.0000
   1587 H2''      -5.5157     3.2135  1467.7899 H        453 DC      0.0000
   1588 H1'       -2.9272     4.6993  1467.3611 H        453 DC      0.0000
   1589 H5        -4.2760    -0.3783  1468.3792 H        453 DC      0.0000
   1590 H6        -5.0545     1.9133  1468.2127 H        453 DC      0.0000
   1591 H41       -0.7022    -1.2163  1468.4721 H        453 DC      0.0000
   1592 H42       -2.3393    -1.8319  1468.5078 H        453 DC      0.0000
   1593 P         -5.2895     6.7321  1465.8387 P.3      452 DA      0.0000
   1594 OP1       -5.7016     8.1353  1465.4493 O.co2    452 DA      0.0000
   1595 OP2       -6.1385     5.6508  1465.2687 O.co2    452 DA      0.0000
   1596 O5'       -3.7061     6.6147  1465.6732 O.3      452 DA      0.0000
   1597 C5'       -2.8760     7.7487  1466.1386 C.3      452 DA      0.0000
   1598 C4'       -1.6433     7.6110  1465.2614 C.3      452 DA      0.0000
   1599 O4'       -0.9961     6.3604  1465.5287 O.3      452 DA      0.0000
   1600 C3'       -1.9653     7.5674  1463.7570 C.3      452 DA      0.0000
   1601 O3'       -0.8129     7.8167  1462.9679 O.3      452 DA      0.0000
   1602 C2'       -2.2691     6.0696  1463.5695 C.3      452 DA      0.0000
   1603 C1'       -1.0019     5.5824  1464.3242 C.3      452 DA      0.0000
   1604 N9        -1.1943     4.1432  1464.4696 N.ar     452 DA      0.0000
   1605 C8        -2.3998     3.4817  1464.5424 C.ar     452 DA      0.0000
   1606 N7        -2.2739     2.1833  1464.6571 N.ar     452 DA      0.0000
   1607 C5        -0.8816     1.9855  1464.6507 C.ar     452 DA      0.0000
   1608 C6        -0.1089     0.7959  1464.7506 C.ar     452 DA      0.0000
   1609 N6        -0.6370    -0.4253  1464.8735 N.pl3    452 DA      0.0000
   1610 N1         1.2384     0.9953  1464.7155 N.ar     452 DA      0.0000
   1611 C2         1.7749     2.2344  1464.5966 C.ar     452 DA      0.0000
   1612 N3         1.1109     3.3903  1464.5051 N.ar     452 DA      0.0000
   1613 C4        -0.2170     3.1811  1464.5327 C.ar     452 DA      0.0000
   1614 H5'       -3.3772     8.7021  1465.9719 H        452 DA      0.0000
   1615 H5''      -2.6155     7.6292  1467.1903 H        452 DA      0.0000
   1616 H4'       -0.9548     8.4310  1465.4653 H        452 DA      0.0000
   1617 H3'       -2.8070     8.2052  1463.4873 H        452 DA      0.0000
   1618 H2'       -3.1965     5.7599  1464.0511 H        452 DA      0.0000
   1619 H2''      -2.2465     5.7828  1462.5181 H        452 DA      0.0000
   1620 H1'       -0.1077     5.7879  1463.7357 H        452 DA      0.0000
   1621 H8        -3.3551     3.9843  1464.5084 H        452 DA      0.0000
   1622 H2         2.8530     2.2937  1464.5734 H        452 DA      0.0000
   1623 H61       -1.6399    -0.5415  1464.8982 H        452 DA      0.0000
   1624 H62       -0.0333    -1.2321  1464.9416 H        452 DA      0.0000
   1625 P         -0.8336     8.9210  1461.8270 P.3      451 DC      0.0000
   1626 OP1       -0.5512    10.1942  1462.6073 O.co2    451 DC      0.0000
   1627 OP2       -2.1082     8.9614  1461.1014 O.co2    451 DC      0.0000
   1628 O5'        0.3702     8.3707  1460.8511 O.3      451 DC      0.0000
   1629 C5'        1.6606     8.0984  1461.5202 C.3      451 DC      0.0000
   1630 C4'        2.2872     6.8900  1460.8761 C.3      451 DC      0.0000
   1631 O4'        1.9536     5.6629  1461.5133 O.3      451 DC      0.0000
   1632 C3'        1.8925     6.7271  1459.3983 C.3      451 DC      0.0000
   1633 O3'        2.9138     6.1603  1458.5870 O.3      451 DC      0.0000
   1634 C2'        0.7359     5.6875  1459.5640 C.3      451 DC      0.0000
   1635 C1'        1.6135     4.7375  1460.4595 C.3      451 DC      0.0000
   1636 N1         0.8376     3.5485  1460.6974 N.am     451 DC      0.0000
   1637 C2         1.5052     2.3767  1461.0146 C.2      451 DC      0.0000
   1638 O2         2.7160     2.1707  1461.1550 O.2      451 DC      0.0000
   1639 N3         0.7601     1.2474  1461.2128 N.2      451 DC      0.0000
   1640 C4        -0.6027     1.2490  1461.0968 C.2      451 DC      0.0000
   1641 N4        -1.2929     0.1183  1461.3129 N.pl3    451 DC      0.0000
   1642 C5        -1.2736     2.4590  1460.7672 C.2      451 DC      0.0000
   1643 C6        -0.5231     3.5501  1460.5755 C.2      451 DC      0.0000
   1644 H5'        2.3210     8.9584  1461.4087 H        451 DC      0.0000
   1645 H5''       1.4901     7.9024  1462.5788 H        451 DC      0.0000
   1646 H4'        3.3697     7.0086  1460.9229 H        451 DC      0.0000
   1647 H3'        1.5268     7.6645  1458.9793 H        451 DC      0.0000
   1648 H2'       -0.1362     6.0876  1460.0811 H        451 DC      0.0000
   1649 H2''       0.4687     5.2211  1458.6157 H        451 DC      0.0000
   1650 H1'        2.5187     4.4695  1459.9146 H        451 DC      0.0000
   1651 H5        -2.3491     2.4957  1460.6750 H        451 DC      0.0000
   1652 H6        -1.0158     4.4744  1460.3122 H        451 DC      0.0000
   1653 H41       -0.8053    -0.7329  1461.5534 H        451 DC      0.0000
   1654 H42       -2.2999     0.1186  1461.2349 H        451 DC      0.0000
   1655 P          1.3962    -9.9213  1495.1862 P.3      461 DG      0.0000
   1656 OP1        0.8794   -11.3122  1495.1846 O.co2    461 DG      0.0000
   1657 OP2        0.5903    -9.1504  1496.2419 O.co2    461 DG      0.0000
   1658 O5'        2.9666    -9.7382  1495.3646 O.3      461 DG      0.0000
   1659 C5'        3.9671    -9.4510  1494.3646 C.3      461 DG      0.0000
   1660 C4'        4.8151    -8.2996  1494.8634 C.3      461 DG      0.0000
   1661 O4'        4.3122    -7.0495  1494.4442 O.3      461 DG      0.0000
   1662 C3'        5.0555    -8.1910  1496.3556 C.3      461 DG      0.0000
   1663 O3'        6.4732    -8.1252  1496.6676 O.3      461 DG      0.0000
   1664 C2'        4.2899    -6.9513  1496.7774 C.3      461 DG      0.0000
   1665 C1'        4.2516    -6.1142  1495.5218 C.3      461 DG      0.0000
   1666 N9         3.0212    -5.3028  1495.4927 N.ar     461 DG      0.0000
   1667 C8         1.7200    -5.6833  1495.7216 C.ar     461 DG      0.0000
   1668 N7         0.8504    -4.7024  1495.6319 N.ar     461 DG      0.0000
   1669 C5         1.6322    -3.5947  1495.3149 C.ar     461 DG      0.0000
   1670 C6         1.2975    -2.2367  1495.0890 C.2      461 DG      0.0000
   1671 O6         0.1835    -1.7124  1495.1103 O.2      461 DG      0.0000
   1672 N1         2.3547    -1.4154  1494.8075 N.am     461 DG      0.0000
   1673 C2         3.5781    -1.8348  1494.7468 C.2      461 DG      0.0000
   1674 N2         4.3646    -0.8743  1494.4500 N.pl3    461 DG      0.0000
   1675 N3         4.0073    -3.1493  1494.9556 N.2      461 DG      0.0000
   1676 C4         2.9657    -3.9483  1495.2281 C.ar     461 DG      0.0000
   1677 H5'        4.5932   -10.3290  1494.2058 H        461 DG      0.0000
   1678 H5''       3.4821    -9.1718  1493.4292 H        461 DG      0.0000
   1679 H4'        5.7947    -8.4117  1494.3987 H        461 DG      0.0000
   1680 H3'        4.6230    -9.0610  1496.8495 H        461 DG      0.0000
   1681 H2'        3.2825    -7.2086  1497.1044 H        461 DG      0.0000
   1682 H2''       4.8239    -6.4255  1497.5689 H        461 DG      0.0000
   1683 H1'        5.1232    -5.4605  1495.4899 H        461 DG      0.0000
   1684 H8         1.4374    -6.6994  1495.9547 H        461 DG      0.0000
   1685 H1         2.1724    -0.4364  1494.6391 H        461 DG      0.0000
   1686 H21        3.9954     0.0546  1494.3057 H        461 DG      0.0000
   1687 H22        5.3562    -1.0433  1494.3596 H        461 DG      0.0000
   1688 P          7.0143    -7.7265  1498.0961 P.3      462 DT      0.0000
   1689 OP1        8.1927    -8.5140  1498.6078 O.co2    462 DT      0.0000
   1690 OP2        5.8463    -8.1289  1499.0148 O.co2    462 DT      0.0000
   1691 O5'        7.1759    -6.1851  1498.1247 O.3      462 DT      0.0000
   1692 C5'        8.4599    -5.5180  1497.9807 C.3      462 DT      0.0000
   1693 C4'        8.1312    -4.0408  1498.0382 C.3      462 DT      0.0000
   1694 O4'        6.7712    -3.7863  1497.7630 O.3      462 DT      0.0000
   1695 C3'        8.3920    -3.3464  1499.3509 C.3      462 DT      0.0000
   1696 O3'        9.4330    -2.3766  1499.1627 O.3      462 DT      0.0000
   1697 C2'        7.0713    -2.6843  1499.7432 C.3      462 DT      0.0000
   1698 C1'        6.4298    -2.5159  1498.3904 C.3      462 DT      0.0000
   1699 N1         4.9712    -2.4545  1498.4870 N.am     462 DT      0.0000
   1700 C2         4.3771    -1.2377  1498.2891 C.2      462 DT      0.0000
   1701 O2         5.0222    -0.2193  1498.0509 O.2      462 DT      0.0000
   1702 N3         3.0114    -1.1902  1498.3702 N.am     462 DT      0.0000
   1703 C4         2.2519    -2.2794  1498.6261 C.2      462 DT      0.0000
   1704 O4         1.0098    -2.0801  1498.6714 O.2      462 DT      0.0000
   1705 C5         2.8913    -3.5450  1498.8258 C.2      462 DT      0.0000
   1706 C7         2.0882    -4.7735  1499.1057 C.3      462 DT      0.0000
   1707 C6         4.2274    -3.5821  1498.7443 C.2      462 DT      0.0000
   1708 H5'        9.1306    -5.7948  1498.7941 H        462 DT      0.0000
   1709 H5''       8.9093    -5.7676  1497.0195 H        462 DT      0.0000
   1710 H4'        8.7241    -3.5389  1497.2737 H        462 DT      0.0000
   1711 H3'        8.6875    -4.0727  1500.1080 H        462 DT      0.0000
   1712 H2'        6.4769    -3.3277  1500.3920 H        462 DT      0.0000
   1713 H2''       7.2471    -1.7163  1500.2124 H        462 DT      0.0000
   1714 H1'        6.8405    -1.6662  1497.8451 H        462 DT      0.0000
   1715 H3         2.5505    -0.3021  1498.2327 H        462 DT      0.0000
   1716 H6         4.7355    -4.5248  1498.8847 H        462 DT      0.0000
   1717 H71        2.0174    -5.3761  1498.2001 H        462 DT      0.0000
   1718 H72        1.0879    -4.4872  1499.4304 H        462 DT      0.0000
   1719 H73        2.5731    -5.3535  1499.8910 H        462 DT      0.0000
   1720 P         10.4295    -2.2560  1500.4427 P.3      463 DG      0.0000
   1721 OP1       11.7533    -2.0171  1499.7276 O.co2    463 DG      0.0000
   1722 OP2       10.3800    -3.4961  1501.1962 O.co2    463 DG      0.0000
   1723 O5'        9.7493    -0.9032  1501.0522 O.3      463 DG      0.0000
   1724 C5'        9.5344     0.0704  1499.9616 C.3      463 DG      0.0000
   1725 C4'        8.6216     1.1415  1500.4816 C.3      463 DG      0.0000
   1726 O4'        7.2462     0.9347  1500.3010 O.3      463 DG      0.0000
   1727 C3'        8.8350     1.4204  1501.9897 C.3      463 DG      0.0000
   1728 O3'        9.0889     2.8373  1502.1485 O.3      463 DG      0.0000
   1729 C2'        7.5786     0.8843  1502.6422 C.3      463 DG      0.0000
   1730 C1'        6.5348     1.1371  1501.5607 C.3      463 DG      0.0000
   1731 N9         5.3678     0.2642  1501.7302 N.ar     463 DG      0.0000
   1732 C8         5.3322    -1.0609  1502.0664 C.ar     463 DG      0.0000
   1733 N7         4.1240    -1.5724  1502.1522 N.ar     463 DG      0.0000
   1734 C5         3.3051    -0.4949  1501.8221 C.ar     463 DG      0.0000
   1735 C6         1.8873    -0.3971  1501.7278 C.2      463 DG      0.0000
   1736 O6         1.0436    -1.2853  1501.9201 O.2      463 DG      0.0000
   1737 N1         1.4247     0.8549  1501.3928 N.am     463 DG      0.0000
   1738 C2         2.2694     1.8991  1501.1690 C.2      463 DG      0.0000
   1739 N2         1.6434     3.0423  1500.8602 N.pl3    463 DG      0.0000
   1740 N3         3.5979     1.8573  1501.2400 N.2      463 DG      0.0000
   1741 C4         4.0519     0.6351  1501.5666 C.ar     463 DG      0.0000
   1742 H5'       10.4866     0.5075  1499.6611 H        463 DG      0.0000
   1743 H5''       9.0715    -0.4268  1499.1092 H        463 DG      0.0000
   1744 H4'        8.8759     2.0591  1499.9511 H        463 DG      0.0000
   1745 H3'        9.6971     0.8556  1502.3444 H        463 DG      0.0000
   1746 H2'        7.6698    -0.1787  1502.8652 H        463 DG      0.0000
   1747 H2''       7.3426     1.4483  1503.5446 H        463 DG      0.0000
   1748 H1'        6.2101     2.1759  1501.6196 H        463 DG      0.0000
   1749 H8         6.2252    -1.6410  1502.2470 H        463 DG      0.0000
   1750 H1         0.4291     1.0037  1501.3104 H        463 DG      0.0000
   1751 H21        0.6350     3.0683  1500.8100 H        463 DG      0.0000
   1752 H22        2.1798     3.8784  1500.6775 H        463 DG      0.0000
   1753 P          9.4621     3.4510  1503.5369 P.3      464 DA      0.0000
   1754 OP1       10.9133     3.4830  1503.8923 O.co2    464 DA      0.0000
   1755 OP2        8.7788     2.3535  1504.4327 O.co2    464 DA      0.0000
   1756 O5'        8.5841     4.7479  1503.7860 O.3      464 DA      0.0000
   1757 C5'        7.9722     5.5393  1502.7570 C.3      464 DA      0.0000
   1758 C4'        6.5485     5.7820  1503.2313 C.3      464 DA      0.0000
   1759 O4'        5.7910     4.5943  1503.1410 O.3      464 DA      0.0000
   1760 C3'        6.3908     6.3017  1504.6604 C.3      464 DA      0.0000
   1761 O3'        5.4749     7.4149  1504.7127 O.3      464 DA      0.0000
   1762 C2'        5.8688     5.0613  1505.3958 C.3      464 DA      0.0000
   1763 C1'        4.9469     4.5109  1504.3182 C.3      464 DA      0.0000
   1764 N9         4.5332     3.1228  1504.5466 N.ar     464 DA      0.0000
   1765 C8         5.2889     2.0055  1504.7624 C.ar     464 DA      0.0000
   1766 N7         4.5834     0.9088  1504.9274 N.ar     464 DA      0.0000
   1767 C5         3.2707     1.3336  1504.7872 C.ar     464 DA      0.0000
   1768 C6         2.0486     0.6278  1504.8351 C.ar     464 DA      0.0000
   1769 N6         1.9431    -0.6849  1505.0549 N.pl3    464 DA      0.0000
   1770 N1         0.9293     1.3878  1504.6453 N.ar     464 DA      0.0000
   1771 C2         1.0137     2.7205  1504.4276 C.ar     464 DA      0.0000
   1772 N3         2.1268     3.4506  1504.3693 N.ar     464 DA      0.0000
   1773 C4         3.2184     2.6865  1504.5562 C.ar     464 DA      0.0000
   1774 H5'        7.9722     4.9999  1501.8098 H        464 DA      0.0000
   1775 H5''       8.4989     6.4875  1502.6492 H        464 DA      0.0000
   1776 H4'        6.0970     6.5139  1502.5615 H        464 DA      0.0000
   1777 H3'        7.3608     6.5950  1505.0618 H        464 DA      0.0000
   1778 H2'        6.6706     4.3650  1505.6413 H        464 DA      0.0000
   1779 H2''       5.3067     5.3416  1506.2867 H        464 DA      0.0000
   1780 H1'        4.0731     5.1524  1504.2037 H        464 DA      0.0000
   1781 H8         6.3683     2.0218  1504.7945 H        464 DA      0.0000
   1782 H2         0.0816     3.2476  1504.2862 H        464 DA      0.0000
   1783 H61        2.6965    -1.3505  1504.9575 H        464 DA      0.0000
   1784 H62        1.0525    -1.1293  1504.8834 H        464 DA      0.0000
   1785 P          5.5852     8.5910  1505.8541 P.3      465 DA      0.0000
   1786 OP1        5.8380     9.9201  1505.1871 O.co2    465 DA      0.0000
   1787 OP2        6.6936     8.0784  1506.6850 O.co2    465 DA      0.0000
   1788 O5'        4.0845     8.6971  1506.3849 O.3      465 DA      0.0000
   1789 C5'        2.9802     9.0661  1505.5606 C.3      465 DA      0.0000
   1790 C4'        1.7434     8.3563  1506.0829 C.3      465 DA      0.0000
   1791 O4'        1.9281     6.9691  1506.1111 O.3      465 DA      0.0000
   1792 C3'        1.2253     8.7674  1507.4502 C.3      465 DA      0.0000
   1793 O3'       -0.0779     9.3446  1507.3724 O.3      465 DA      0.0000
   1794 C2'        1.3199     7.4804  1508.2790 C.3      465 DA      0.0000
   1795 C1'        1.2760     6.3855  1507.2852 C.3      465 DA      0.0000
   1796 N9         1.9589     5.1068  1507.5532 N.ar     465 DA      0.0000
   1797 C8         3.2992     4.8282  1507.6684 C.ar     465 DA      0.0000
   1798 N7         3.5705     3.5558  1507.8377 N.ar     465 DA      0.0000
   1799 C5         2.3221     2.9430  1507.8007 C.ar     465 DA      0.0000
   1800 C6         1.9321     1.5787  1507.9212 C.ar     465 DA      0.0000
   1801 N6         2.7561     0.5561  1508.1128 N.pl3    465 DA      0.0000
   1802 N1         0.5848     1.3363  1507.8230 N.ar     465 DA      0.0000
   1803 C2        -0.2940     2.3631  1507.6339 C.ar     465 DA      0.0000
   1804 N3         0.0013     3.6535  1507.5260 N.ar     465 DA      0.0000
   1805 C4         1.3279     3.8760  1507.6179 C.ar     465 DA      0.0000
   1806 H5'        3.1713     8.7651  1504.5306 H        465 DA      0.0000
   1807 H5''       2.8316    10.1449  1505.6066 H        465 DA      0.0000
   1808 H4'        0.9425     8.5531  1505.3702 H        465 DA      0.0000
   1809 H3'        1.9076     9.5046  1507.8734 H        465 DA      0.0000
   1810 H2'        2.2545     7.4527  1508.8392 H        465 DA      0.0000
   1811 H2''       0.4709     7.4067  1508.9585 H        465 DA      0.0000
   1812 H1'        0.2343     6.1795  1507.0391 H        465 DA      0.0000
   1813 H8         4.0632     5.5903  1507.6236 H        465 DA      0.0000
   1814 H2        -1.3389     2.0988  1507.5647 H        465 DA      0.0000
   1815 H61        3.7038     0.6814  1508.4390 H        465 DA      0.0000
   1816 H62        2.4242    -0.3794  1507.9260 H        465 DA      0.0000
   1817 P         -0.6446    10.5315  1508.3286 P.3      466 DT      0.0000
   1818 OP1       -1.4355    11.5625  1507.5313 O.co2    466 DT      0.0000
   1819 OP2        0.4159    11.0776  1509.1492 O.co2    466 DT      0.0000
   1820 O5'       -1.8442     9.7543  1509.1423 O.3      466 DT      0.0000
   1821 C5'       -2.5713     8.8583  1508.1972 C.3      466 DT      0.0000
   1822 C4'       -2.8020     7.5938  1508.9850 C.3      466 DT      0.0000
   1823 O4'       -1.6356     6.8253  1509.1769 O.3      466 DT      0.0000
   1824 C3'       -3.3340     7.8793  1510.4015 C.3      466 DT      0.0000
   1825 O3'       -4.7416     7.7291  1510.4032 O.3      466 DT      0.0000
   1826 C2'       -2.5828     6.8989  1511.2988 C.3      466 DT      0.0000
   1827 C1'       -1.9916     5.9501  1510.3342 C.3      466 DT      0.0000
   1828 N1        -0.7927     5.2004  1510.6739 N.am     466 DT      0.0000
   1829 C2        -0.9309     3.8228  1510.8119 C.2      466 DT      0.0000
   1830 O2        -2.0393     3.3103  1510.7238 O.2      466 DT      0.0000
   1831 N3         0.1861     3.0857  1511.0659 N.am     466 DT      0.0000
   1832 C4         1.4266     3.6438  1511.1860 C.2      466 DT      0.0000
   1833 O4         2.4189     2.8892  1511.4412 O.2      466 DT      0.0000
   1834 C5         1.5480     5.0621  1511.0144 C.2      466 DT      0.0000
   1835 C7         2.8951     5.7242  1511.1019 C.3      466 DT      0.0000
   1836 C6         0.4434     5.7841  1510.7587 C.2      466 DT      0.0000
   1837 H5'       -3.5194     9.3036  1507.8956 H        466 DT      0.0000
   1838 H5''      -1.9551     8.6517  1507.3222 H        466 DT      0.0000
   1839 H4'       -3.5350     6.9848  1508.4558 H        466 DT      0.0000
   1840 H3'       -3.0780     8.9000  1510.6859 H        466 DT      0.0000
   1841 H2'       -1.8080     7.4078  1511.8722 H        466 DT      0.0000
   1842 H2''      -3.2749     6.3841  1511.9652 H        466 DT      0.0000
   1843 H1'       -2.7634     5.2488  1510.0168 H        466 DT      0.0000
   1844 H3         0.0930     2.0853  1511.1696 H        466 DT      0.0000
   1845 H6         0.5329     6.8510  1510.6165 H        466 DT      0.0000
   1846 H71        3.6563     4.9737  1511.3150 H        466 DT      0.0000
   1847 H72        3.1219     6.2125  1510.1542 H        466 DT      0.0000
   1848 H73        2.8838     6.4669  1511.8997 H        466 DT      0.0000
   1849 P         -5.7635     8.1042  1511.5098 P.3      467 DT      0.0000
   1850 OP1       -7.1746     8.3008  1510.8978 O.co2    467 DT      0.0000
   1851 OP2       -5.2570     9.3507  1512.1398 O.co2    467 DT      0.0000
   1852 O5'       -5.9067     6.7727  1512.3922 O.3      467 DT      0.0000
   1853 C5'       -6.5925     5.7079  1511.6804 C.3      467 DT      0.0000
   1854 C4'       -6.2974     4.4142  1512.3565 C.3      467 DT      0.0000
   1855 O4'       -4.9216     4.0547  1512.3332 O.3      467 DT      0.0000
   1856 C3'       -6.7471     4.3481  1513.8232 C.3      467 DT      0.0000
   1857 O3'       -7.3718     3.1062  1514.0872 O.3      467 DT      0.0000
   1858 C2'       -5.3881     4.4175  1514.5595 C.3      467 DT      0.0000
   1859 C1'       -4.6241     3.4712  1513.6560 C.3      467 DT      0.0000
   1860 N1        -3.2040     3.4969  1513.9537 N.am     467 DT      0.0000
   1861 C2        -2.5184     2.2943  1514.0085 C.2      467 DT      0.0000
   1862 O2        -3.1374     1.2460  1513.8200 O.2      467 DT      0.0000
   1863 N3        -1.1784     2.3258  1514.2744 N.am     467 DT      0.0000
   1864 C4        -0.5070     3.4916  1514.4814 C.2      467 DT      0.0000
   1865 O4         0.7365     3.4438  1514.7047 O.2      467 DT      0.0000
   1866 C5        -1.2217     4.7231  1514.4163 C.2      467 DT      0.0000
   1867 C7        -0.5515     6.0496  1514.6262 C.3      467 DT      0.0000
   1868 C6        -2.5372     4.6737  1514.1552 C.2      467 DT      0.0000
   1869 H5'       -7.6669     5.8914  1511.6928 H        467 DT      0.0000
   1870 H5''      -6.2398     5.6707  1510.6497 H        467 DT      0.0000
   1871 H4'       -6.8417     3.6384  1511.8181 H        467 DT      0.0000
   1872 H3'       -7.3913     5.1873  1514.0856 H        467 DT      0.0000
   1873 H2'       -4.9667     5.4227  1514.5583 H        467 DT      0.0000
   1874 H2''      -5.4657     4.0220  1515.5722 H        467 DT      0.0000
   1875 H1'       -5.0188     2.4580  1513.7316 H        467 DT      0.0000
   1876 H3        -0.6691     1.4548  1514.3188 H        467 DT      0.0000
   1877 H6        -3.0909     5.5995  1514.1021 H        467 DT      0.0000
   1878 H71        0.5089     5.8941  1514.8252 H        467 DT      0.0000
   1879 H72       -0.6671     6.6605  1513.7310 H        467 DT      0.0000
   1880 H73       -1.0096     6.5579  1515.4746 H        467 DT      0.0000
   1881 P          5.4913    -6.6015  1516.3710 P.3      467 DA      0.0000
   1882 OP1        4.9780    -7.8177  1517.1523 O.co2    467 DA      0.0000
   1883 OP2        6.2244    -7.0320  1515.1783 O.co2    467 DA      0.0000
   1884 O5'        4.2059    -5.6160  1516.1962 O.3      467 DA      0.0000
   1885 C5'        3.2915    -5.7046  1517.3526 C.3      467 DA      0.0000
   1886 C4'        1.9797    -6.2306  1516.8248 C.3      467 DA      0.0000
   1887 O4'        1.0412    -5.2089  1516.6026 O.3      467 DA      0.0000
   1888 C3'        2.1224    -6.9504  1515.4843 C.3      467 DA      0.0000
   1889 O3'        1.3346    -8.1144  1515.4091 O.3      467 DA      0.0000
   1890 C2'        1.8392    -5.8407  1514.4878 C.3      467 DA      0.0000
   1891 C1'        1.0051    -4.8209  1515.2116 C.3      467 DA      0.0000
   1892 N9         1.5020    -3.4528  1514.9861 N.ar     467 DA      0.0000
   1893 C8         2.7976    -3.0216  1514.7997 C.ar     467 DA      0.0000
   1894 N7         2.9150    -1.7285  1514.6038 N.ar     467 DA      0.0000
   1895 C5         1.6052    -1.2735  1514.6907 C.ar     467 DA      0.0000
   1896 C6         1.0572     0.0262  1514.5851 C.ar     467 DA      0.0000
   1897 N6         1.7779     1.1132  1514.3726 N.pl3    467 DA      0.0000
   1898 N1        -0.2958     0.1173  1514.7088 N.ar     467 DA      0.0000
   1899 C2        -1.0652    -0.9886  1514.9333 C.ar     467 DA      0.0000
   1900 N3        -0.6131    -2.2356  1515.0492 N.ar     467 DA      0.0000
   1901 C4         0.7328    -2.3134  1514.9131 C.ar     467 DA      0.0000
   1902 H5'        3.6963    -6.3863  1518.1007 H        467 DA      0.0000
   1903 H5''       3.1472    -4.7164  1517.7893 H        467 DA      0.0000
   1904 H4'        1.5671    -6.9295  1517.5525 H        467 DA      0.0000
   1905 H3'        3.1660    -7.2441  1515.3712 H        467 DA      0.0000
   1906 H2'        1.2927    -6.2345  1513.6309 H        467 DA      0.0000
   1907 H2''       2.7748    -5.3895  1514.1572 H        467 DA      0.0000
   1908 H1'       -0.0222    -4.8868  1514.8534 H        467 DA      0.0000
   1909 H8         3.6451    -3.6909  1514.8136 H        467 DA      0.0000
   1910 H2        -2.1308    -0.8389  1515.0246 H        467 DA      0.0000
   1911 H61        1.4621     2.0193  1514.6880 H        467 DA      0.0000
   1912 H62        2.6598     1.0366  1513.8864 H        467 DA      0.0000
   1913 P          0.4901    -8.7311  1514.2245 P.3      466 DA      0.0000
   1914 OP1       -0.4149    -9.8860  1514.7444 O.co2    466 DA      0.0000
   1915 OP2        1.5128    -9.2976  1513.2909 O.co2    466 DA      0.0000
   1916 O5'       -0.5009    -7.6144  1513.7219 O.3      466 DA      0.0000
   1917 C5'       -1.8696    -7.6072  1514.1777 C.3      466 DA      0.0000
   1918 C4'       -2.5629    -6.4599  1513.4758 C.3      466 DA      0.0000
   1919 O4'       -1.7840    -5.3039  1513.3550 O.3      466 DA      0.0000
   1920 C3'       -3.0448    -6.8087  1512.0682 C.3      466 DA      0.0000
   1921 O3'       -4.4844    -6.7921  1512.0368 O.3      466 DA      0.0000
   1922 C2'       -2.2864    -5.8310  1511.1687 C.3      466 DA      0.0000
   1923 C1'       -2.0451    -4.6555  1512.0665 C.3      466 DA      0.0000
   1924 N9        -0.8749    -3.8370  1511.7669 N.ar     466 DA      0.0000
   1925 C8         0.4349    -4.2241  1511.5721 C.ar     466 DA      0.0000
   1926 N7         1.2593    -3.2213  1511.3667 N.ar     466 DA      0.0000
   1927 C5         0.4543    -2.1014  1511.4412 C.ar     466 DA      0.0000
   1928 C6         0.7394    -0.7240  1511.3077 C.ar     466 DA      0.0000
   1929 N6         1.9533    -0.2393  1511.0645 N.pl3    466 DA      0.0000
   1930 N1        -0.3376     0.1126  1511.4566 N.ar     466 DA      0.0000
   1931 C2        -1.5775    -0.3490  1511.7091 C.ar     466 DA      0.0000
   1932 N3        -1.9210    -1.6330  1511.8479 N.ar     466 DA      0.0000
   1933 C4        -0.8578    -2.4548  1511.7007 C.ar     466 DA      0.0000
   1934 H5'       -2.3541    -8.5497  1513.9226 H        466 DA      0.0000
   1935 H5''      -1.9004    -7.4547  1515.2565 H        466 DA      0.0000
   1936 H4'       -3.4418    -6.2003  1514.0659 H        466 DA      0.0000
   1937 H3'       -2.7097    -7.8189  1511.8332 H        466 DA      0.0000
   1938 H2'       -1.3450    -6.2626  1510.8288 H        466 DA      0.0000
   1939 H2''      -2.9020    -5.5404  1510.3174 H        466 DA      0.0000
   1940 H1'       -2.9385    -4.0338  1512.1276 H        466 DA      0.0000
   1941 H8         0.7534    -5.2560  1511.5871 H        466 DA      0.0000
   1942 H2        -2.3644     0.3841  1511.8082 H        466 DA      0.0000
   1943 H61        2.1038     0.7152  1511.3586 H        466 DA      0.0000
   1944 H62        2.6745    -0.7870  1510.6173 H        466 DA      0.0000
   1945 P         -5.2381    -7.1174  1510.6518 P.3      465 DT      0.0000
   1946 OP1       -6.7066    -7.4059  1510.7100 O.co2    465 DT      0.0000
   1947 OP2       -4.3856    -8.2334  1510.1392 O.co2    465 DT      0.0000
   1948 O5'       -5.0850    -5.6142  1509.9487 O.3      465 DT      0.0000
   1949 C5'       -5.3334    -4.5923  1510.9610 C.3      465 DT      0.0000
   1950 C4'       -5.7333    -3.3236  1510.2781 C.3      465 DT      0.0000
   1951 O4'       -4.6762    -2.4294  1510.0976 O.3      465 DT      0.0000
   1952 C3'       -6.3804    -3.5269  1508.9168 C.3      465 DT      0.0000
   1953 O3'       -7.4353    -2.5946  1508.6495 O.3      465 DT      0.0000
   1954 C2'       -5.1413    -3.3837  1508.0235 C.3      465 DT      0.0000
   1955 C1'       -4.4365    -2.2069  1508.6635 C.3      465 DT      0.0000
   1956 N1        -2.9806    -2.2656  1508.4335 N.am     465 DT      0.0000
   1957 C2        -2.3039    -1.0648  1508.3119 C.2      465 DT      0.0000
   1958 O2        -2.9034     0.0109  1508.3487 O.2      465 DT      0.0000
   1959 N3        -0.9463    -1.1069  1508.1445 N.am     465 DT      0.0000
   1960 C4        -0.2638    -2.2823  1508.0960 C.2      465 DT      0.0000
   1961 O4         0.9886    -2.2277  1507.9104 O.2      465 DT      0.0000
   1962 C5        -0.9760    -3.5053  1508.2444 C.2      465 DT      0.0000
   1963 C7        -0.2516    -4.8294  1508.1923 C.3      465 DT      0.0000
   1964 C6        -2.3006    -3.4469  1508.4173 C.2      465 DT      0.0000
   1965 H5'       -6.1348    -4.9201  1511.6231 H        465 DT      0.0000
   1966 H5''      -4.4259    -4.4245  1511.5410 H        465 DT      0.0000
   1967 H4'       -6.4681    -2.8313  1510.9151 H        465 DT      0.0000
   1968 H3'       -6.7660    -4.5438  1508.8448 H        465 DT      0.0000
   1969 H2'       -4.5237    -4.2813  1508.0540 H        465 DT      0.0000
   1970 H2''      -5.4299    -3.1493  1506.9989 H        465 DT      0.0000
   1971 H1'       -4.8568    -1.2582  1508.3295 H        465 DT      0.0000
   1972 H3        -0.4363    -0.2398  1508.0543 H        465 DT      0.0000
   1973 H6        -2.8506    -4.3672  1508.5487 H        465 DT      0.0000
   1974 H71       -0.3243    -5.2445  1507.1871 H        465 DT      0.0000
   1975 H72       -0.7049    -5.5195  1508.9038 H        465 DT      0.0000
   1976 H73        0.7972    -4.6800  1508.4488 H        465 DT      0.0000
   1977 P         -8.1027    -2.6900  1507.1596 P.3      464 DT      0.0000
   1978 OP1       -9.5535    -3.1522  1507.3076 O.co2    464 DT      0.0000
   1979 OP2       -7.2956    -3.7649  1506.4898 O.co2    464 DT      0.0000
   1980 O5'       -7.9975    -1.2877  1506.5075 O.3      464 DT      0.0000
   1981 C5'       -8.0065    -0.0738  1507.2589 C.3      464 DT      0.0000
   1982 C4'       -7.2096     0.9463  1506.5110 C.3      464 DT      0.0000
   1983 O4'       -5.8168     0.7960  1506.4540 O.3      464 DT      0.0000
   1984 C3'       -7.6060     1.2251  1505.0449 C.3      464 DT      0.0000
   1985 O3'       -7.3355     2.6262  1504.9411 O.3      464 DT      0.0000
   1986 C2'       -6.5767     0.3814  1504.2811 C.3      464 DT      0.0000
   1987 C1'       -5.3553     0.8304  1505.0569 C.3      464 DT      0.0000
   1988 N1        -4.1766    -0.0342  1504.9507 N.am     464 DT      0.0000
   1989 C2        -2.9426     0.6298  1504.9501 C.2      464 DT      0.0000
   1990 O2        -2.8823     1.8604  1504.9931 O.2      464 DT      0.0000
   1991 N3        -1.8202    -0.1456  1504.8966 N.am     464 DT      0.0000
   1992 C4        -1.8658    -1.5068  1504.8369 C.2      464 DT      0.0000
   1993 O4        -0.7676    -2.1372  1504.7745 O.2      464 DT      0.0000
   1994 C5        -3.1310    -2.1548  1504.8451 C.2      464 DT      0.0000
   1995 C7        -3.1964    -3.6666  1504.7837 C.3      464 DT      0.0000
   1996 C6        -4.2263    -1.3923  1504.9116 C.2      464 DT      0.0000
   1997 H5'       -9.0315     0.2764  1507.3812 H        464 DT      0.0000
   1998 H5''      -7.5579    -0.2447  1508.2375 H        464 DT      0.0000
   1999 H4'       -7.3766     1.8856  1507.0382 H        464 DT      0.0000
   2000 H3'       -8.6391     0.9632  1504.8162 H        464 DT      0.0000
   2001 H2'       -6.5209     0.6474  1503.2256 H        464 DT      0.0000
   2002 H2''      -6.7610    -0.6848  1504.4128 H        464 DT      0.0000
   2003 H1'       -5.0931     1.8510  1504.7779 H        464 DT      0.0000
   2004 H3        -0.9181     0.3084  1504.9015 H        464 DT      0.0000
   2005 H6        -5.1920    -1.8754  1504.9353 H        464 DT      0.0000
   2006 H71       -2.1861    -4.0728  1504.7349 H        464 DT      0.0000
   2007 H72       -3.7531    -3.9702  1503.8971 H        464 DT      0.0000
   2008 H73       -3.6975    -4.0451  1505.6747 H        464 DT      0.0000
   2009 P         -7.7746     3.5769  1503.7949 P.3      463 DC      0.0000
   2010 OP1       -8.4076     4.8294  1504.4041 O.co2    463 DC      0.0000
   2011 OP2       -8.8041     2.8229  1503.0131 O.co2    463 DC      0.0000
   2012 O5'       -6.3501     3.8564  1503.0555 O.3      463 DC      0.0000
   2013 C5'       -5.4433     4.7508  1503.7800 C.3      463 DC      0.0000
   2014 C4'       -4.6903     5.5251  1502.7295 C.3      463 DC      0.0000
   2015 O4'       -3.4117     4.9873  1502.4842 O.3      463 DC      0.0000
   2016 C3'       -5.3764     5.6103  1501.3651 C.3      463 DC      0.0000
   2017 O3'       -5.1437     6.8291  1500.6558 O.3      463 DC      0.0000
   2018 C2'       -4.8015     4.3635  1500.6789 C.3      463 DC      0.0000
   2019 C1'       -3.3760     4.3150  1501.2255 C.3      463 DC      0.0000
   2020 N1        -2.9806     2.8918  1501.3433 N.am     463 DC      0.0000
   2021 C2        -1.6147     2.6131  1501.3606 C.2      463 DC      0.0000
   2022 O2        -0.7749     3.5210  1501.2919 O.2      463 DC      0.0000
   2023 N3        -1.2447     1.2993  1501.4638 N.2      463 DC      0.0000
   2024 C4        -2.1574     0.2953  1501.5346 C.2      463 DC      0.0000
   2025 N4        -1.7470    -0.9708  1501.6365 N.pl3    463 DC      0.0000
   2026 C5        -3.5454     0.6072  1501.5094 C.2      463 DC      0.0000
   2027 C6        -3.9079     1.8981  1501.4158 C.2      463 DC      0.0000
   2028 H5'       -6.0108     5.4302  1504.4160 H        463 DC      0.0000
   2029 H5''      -4.7478     4.1679  1504.3839 H        463 DC      0.0000
   2030 H4'       -4.5575     6.5422  1503.0983 H        463 DC      0.0000
   2031 H3'       -6.4499     5.4778  1501.4992 H        463 DC      0.0000
   2032 H2'       -4.8043     4.4739  1499.5946 H        463 DC      0.0000
   2033 H2''      -5.3561     3.4729  1500.9749 H        463 DC      0.0000
   2034 H1'       -2.6997     4.8337  1500.5462 H        463 DC      0.0000
   2035 H5        -4.2892    -0.1739  1501.5642 H        463 DC      0.0000
   2036 H6        -4.9575     2.1523  1501.3977 H        463 DC      0.0000
   2037 H41       -0.7594    -1.1814  1501.6572 H        463 DC      0.0000
   2038 H42       -2.4240    -1.7182  1501.6929 H        463 DC      0.0000
   2039 P         -4.9623     6.9768  1499.0238 P.3      462 DA      0.0000
   2040 OP1       -5.3070     8.3981  1498.6343 O.co2    462 DA      0.0000
   2041 OP2       -5.8619     5.9373  1498.4537 O.co2    462 DA      0.0000
   2042 O5'       -3.3863     6.7840  1498.8583 O.3      462 DA      0.0000
   2043 C5'       -2.5030     7.8771  1499.3237 C.3      462 DA      0.0000
   2044 C4'       -1.2783     7.6807  1498.4464 C.3      462 DA      0.0000
   2045 O4'       -0.6915     6.4007  1498.7137 O.3      462 DA      0.0000
   2046 C3'       -1.6020     7.6525  1496.9420 C.3      462 DA      0.0000
   2047 O3'       -0.4391     7.8466  1496.1529 O.3      462 DA      0.0000
   2048 C2'       -1.9769     6.1709  1496.7545 C.3      462 DA      0.0000
   2049 C1'       -0.7344     5.6239  1497.5092 C.3      462 DA      0.0000
   2050 N9        -0.9953     4.1954  1497.6546 N.ar     462 DA      0.0000
   2051 C8        -2.2309     3.5922  1497.7275 C.ar     462 DA      0.0000
   2052 N7        -2.1672     2.2893  1497.8421 N.ar     462 DA      0.0000
   2053 C5        -0.7858     2.0253  1497.8357 C.ar     462 DA      0.0000
   2054 C6        -0.0708     0.8002  1497.9357 C.ar     462 DA      0.0000
   2055 N6        -0.6566    -0.3944  1498.0585 N.pl3    462 DA      0.0000
   2056 N1         1.2845     0.9350  1497.9005 N.ar     462 DA      0.0000
   2057 C2         1.8795     2.1472  1497.7816 C.ar     462 DA      0.0000
   2058 N3         1.2713     3.3334  1497.6902 N.ar     462 DA      0.0000
   2059 C4        -0.0649     3.1878  1497.7177 C.ar     462 DA      0.0000
   2060 H5'       -2.9582     8.8534  1499.1569 H        462 DA      0.0000
   2061 H5''      -2.2486     7.7453  1500.3753 H        462 DA      0.0000
   2062 H4'       -0.5515     8.4670  1498.6504 H        462 DA      0.0000
   2063 H3'       -2.4123     8.3298  1496.6724 H        462 DA      0.0000
   2064 H2'       -2.9181     5.9058  1497.2362 H        462 DA      0.0000
   2065 H2''      -1.9680     5.8834  1495.7032 H        462 DA      0.0000
   2066 H1'        0.1685     5.7865  1496.9208 H        462 DA      0.0000
   2067 H8        -3.1612     4.1398  1497.6934 H        462 DA      0.0000
   2068 H2         2.9591     2.1550  1497.7584 H        462 DA      0.0000
   2069 H61       -1.6639    -0.4627  1498.0833 H        462 DA      0.0000
   2070 H62       -0.0920    -1.2291  1498.1266 H        462 DA      0.0000
   2071 P         -0.4071     8.9506  1495.0120 P.3      461 DC      0.0000
   2072 OP1       -0.0642    10.2089  1495.7923 O.co2    461 DC      0.0000
   2073 OP2       -1.6783     9.0518  1494.2864 O.co2    461 DC      0.0000
   2074 O5'        0.7692     8.3435  1494.0362 O.3      461 DC      0.0000
   2075 C5'        2.0450     8.0100  1494.7052 C.3      461 DC      0.0000
   2076 C4'        2.6133     6.7730  1494.0611 C.3      461 DC      0.0000
   2077 O4'        2.2215     5.5632  1494.6983 O.3      461 DC      0.0000
   2078 C3'        2.2113     6.6291  1492.5833 C.3      461 DC      0.0000
   2079 O3'        3.2044     6.0143  1491.7720 O.3      461 DC      0.0000
   2080 C2'        1.0065     5.6459  1492.7490 C.3      461 DC      0.0000
   2081 C1'        1.8377     4.6551  1493.6446 C.3      461 DC      0.0000
   2082 N1         1.0059     3.5045  1493.8825 N.am     461 DC      0.0000
   2083 C2         1.6169     2.3022  1494.1996 C.2      461 DC      0.0000
   2084 O2         2.8164     2.0387  1494.3401 O.2      461 DC      0.0000
   2085 N3         0.8188     1.2098  1494.3978 N.2      461 DC      0.0000
   2086 C4        -0.5424     1.2763  1494.2818 C.2      461 DC      0.0000
   2087 N4        -1.2857     0.1798  1494.4979 N.pl3    461 DC      0.0000
   2088 C5        -1.1548     2.5169  1493.9522 C.2      461 DC      0.0000
   2089 C6        -0.3532     3.5710  1493.7605 C.2      461 DC      0.0000
   2090 H5'        2.7458     8.8374  1494.5937 H        461 DC      0.0000
   2091 H5''       1.8654     7.8223  1495.7638 H        461 DC      0.0000
   2092 H4'        3.7002     6.8398  1494.1079 H        461 DC      0.0000
   2093 H3'        1.8908     7.5829  1492.1643 H        461 DC      0.0000
   2094 H2'        0.1544     6.0872  1493.2661 H        461 DC      0.0000
   2095 H2''       0.7173     5.1928  1491.8007 H        461 DC      0.0000
   2096 H1'        2.7291     4.3442  1493.0996 H        461 DC      0.0000
   2097 H5        -2.2273     2.6050  1493.8601 H        461 DC      0.0000
   2098 H6        -0.8011     4.5178  1493.4972 H        461 DC      0.0000
   2099 H41       -0.8393    -0.6936  1494.7384 H        461 DC      0.0000
   2100 H42       -2.2916     0.2282  1494.4200 H        461 DC      0.0000
@<TRIPOS>BOND
     1      9     33 1
     2     41     65 1
     3     73     97 1
     4    105    127 1
     5    135    159 1
     6    197    222 1
     7    230    254 1
     8    262    287 1
     9    295    319 1
    10    327    351 1
    11      1      2 1
    12      1      3 1
    13      1      4 1
    14      4      5 1
    15      5      6 1
    16      6      7 1
    17      6      8 1
    18      7     11 1
    19      8      9 1
    20      8     10 1
    21     10     11 1
    22     11     12 1
    23     12     13 ar
    24     12     21 ar
    25     13     14 ar
    26     14     15 ar
    27     15     16 ar
    28     15     21 ar
    29     16     17 1
    30     16     18 ar
    31     18     19 ar
    32     19     20 ar
    33     20     21 ar
    34     33     34 1
    35     33     35 1
    36     33     36 1
    37     36     37 1
    38     37     38 1
    39     38     39 1
    40     38     40 1
    41     39     43 1
    42     40     41 1
    43     40     42 1
    44     42     43 1
    45     43     44 1
    46     44     45 am
    47     44     52 1
    48     45     46 2
    49     45     47 am
    50     47     48 am
    51     48     49 2
    52     48     50 1
    53     50     51 1
    54     50     52 2
    55     65     66 1
    56     65     67 1
    57     65     68 1
    58     68     69 1
    59     69     70 1
    60     70     71 1
    61     70     72 1
    62     71     75 1
    63     72     73 1
    64     72     74 1
    65     74     75 1
    66     75     76 1
    67     76     77 am
    68     76     84 1
    69     77     78 2
    70     77     79 am
    71     79     80 am
    72     80     81 2
    73     80     82 1
    74     82     83 1
    75     82     84 2
    76     97     98 1
    77     97     99 1
    78     97    100 1
    79    100    101 1
    80    101    102 1
    81    102    103 1
    82    102    104 1
    83    103    107 1
    84    104    105 1
    85    104    106 1
    86    106    107 1
    87    107    108 1
    88    108    109 am
    89    108    115 1
    90    109    110 2
    91    109    111 1
    92    111    112 2
    93    112    113 2
    94    112    114 2
    95    114    115 2
    96    127    128 1
    97    127    129 1
    98    127    130 1
    99    130    131 1
   100    131    132 1
   101    132    133 1
   102    132    134 1
   103    133    137 1
   104    134    135 1
   105    134    136 1
   106    136    137 1
   107    137    138 1
   108    138    139 ar
   109    138    147 ar
   110    139    140 ar
   111    140    141 ar
   112    141    142 ar
   113    141    147 ar
   114    142    143 1
   115    142    144 ar
   116    144    145 ar
   117    145    146 ar
   118    146    147 ar
   119    159    160 1
   120    159    161 1
   121    159    162 1
   122    162    163 1
   123    163    164 1
   124    164    165 1
   125    164    166 1
   126    165    169 1
   127    166    167 1
   128    166    168 1
   129    168    169 1
   130    169    170 1
   131    170    171 am
   132    170    177 1
   133    171    172 2
   134    171    173 1
   135    173    174 2
   136    174    175 2
   137    174    176 2
   138    176    177 2
   139    189    190 1
   140    189    191 1
   141    189    192 1
   142    192    193 1
   143    193    194 1
   144    194    195 1
   145    194    196 1
   146    195    199 1
   147    196    197 1
   148    196    198 1
   149    198    199 1
   150    199    200 1
   151    200    201 ar
   152    200    210 ar
   153    201    202 ar
   154    202    203 ar
   155    203    204 1
   156    203    210 ar
   157    204    205 2
   158    204    206 am
   159    206    207 1
   160    207    208 2
   161    207    209 2
   162    209    210 1
   163    222    223 1
   164    222    224 1
   165    222    225 1
   166    225    226 1
   167    226    227 1
   168    227    228 1
   169    227    229 1
   170    228    232 1
   171    229    230 1
   172    229    231 1
   173    231    232 1
   174    232    233 1
   175    233    234 am
   176    233    241 1
   177    234    235 2
   178    234    236 am
   179    236    237 am
   180    237    238 2
   181    237    239 1
   182    239    240 1
   183    239    241 2
   184    254    255 1
   185    254    256 1
   186    254    257 1
   187    257    258 1
   188    258    259 1
   189    259    260 1
   190    259    261 1
   191    260    264 1
   192    261    262 1
   193    261    263 1
   194    263    264 1
   195    264    265 1
   196    265    266 ar
   197    265    275 ar
   198    266    267 ar
   199    267    268 ar
   200    268    269 1
   201    268    275 ar
   202    269    270 2
   203    269    271 am
   204    271    272 1
   205    272    273 2
   206    272    274 2
   207    274    275 1
   208    287    288 1
   209    287    289 1
   210    287    290 1
   211    290    291 1
   212    291    292 1
   213    292    293 1
   214    292    294 1
   215    293    297 1
   216    294    295 1
   217    294    296 1
   218    296    297 1
   219    297    298 1
   220    298    299 ar
   221    298    307 ar
   222    299    300 ar
   223    300    301 ar
   224    301    302 ar
   225    301    307 ar
   226    302    303 1
   227    302    304 ar
   228    304    305 ar
   229    305    306 ar
   230    306    307 ar
   231    319    320 1
   232    319    321 1
   233    319    322 1
   234    322    323 1
   235    323    324 1
   236    324    325 1
   237    324    326 1
   238    325    329 1
   239    326    327 1
   240    326    328 1
   241    328    329 1
   242    329    330 1
   243    330    331 ar
   244    330    339 ar
   245    331    332 ar
   246    332    333 ar
   247    333    334 ar
   248    333    339 ar
   249    334    335 1
   250    334    336 ar
   251    336    337 ar
   252    337    338 ar
   253    338    339 ar
   254    351    352 1
   255    351    353 1
   256    351    354 1
   257    354    355 1
   258    355    356 1
   259    356    357 1
   260    356    358 1
   261    357    361 1
   262    358    359 1
   263    358    360 1
   264    360    361 1
   265    361    362 1
   266    362    363 am
   267    362    370 1
   268    363    364 2
   269    363    365 am
   270    365    366 am
   271    366    367 2
   272    366    368 1
   273    368    369 1
   274    368    370 2
   275     22      5 1
   276     23      5 1
   277     24      6 1
   278     25      8 1
   279     26     10 1
   280     27     10 1
   281     28     11 1
   282     29     13 1
   283     30     19 1
   284     53     37 1
   285     54     37 1
   286     55     38 1
   287     56     40 1
   288     57     42 1
   289     58     42 1
   290     59     43 1
   291     60     47 1
   292     61     52 1
   293     85     69 1
   294     86     69 1
   295     87     70 1
   296     88     72 1
   297     89     74 1
   298     90     74 1
   299     91     75 1
   300     92     79 1
   301     93     84 1
   302    116    101 1
   303    117    101 1
   304    118    102 1
   305    119    104 1
   306    120    106 1
   307    121    106 1
   308    122    107 1
   309    123    114 1
   310    124    115 1
   311    148    131 1
   312    149    131 1
   313    150    132 1
   314    151    134 1
   315    152    136 1
   316    153    136 1
   317    154    137 1
   318    155    139 1
   319    156    145 1
   320    178    163 1
   321    179    163 1
   322    180    164 1
   323    181    166 1
   324    182    168 1
   325    183    168 1
   326    184    169 1
   327    185    176 1
   328    186    177 1
   329    211    193 1
   330    212    193 1
   331    213    194 1
   332    214    196 1
   333    215    198 1
   334    216    198 1
   335    217    199 1
   336    218    201 1
   337    219    206 1
   338    242    226 1
   339    243    226 1
   340    244    227 1
   341    245    229 1
   342    246    231 1
   343    247    231 1
   344    248    232 1
   345    249    236 1
   346    250    241 1
   347    276    258 1
   348    277    258 1
   349    278    259 1
   350    279    261 1
   351    280    263 1
   352    281    263 1
   353    282    264 1
   354    283    266 1
   355    284    271 1
   356    308    291 1
   357    309    291 1
   358    310    292 1
   359    311    294 1
   360    312    296 1
   361    313    296 1
   362    314    297 1
   363    315    299 1
   364    316    305 1
   365    340    323 1
   366    341    323 1
   367    342    324 1
   368    343    326 1
   369    344    328 1
   370    345    328 1
   371    346    329 1
   372    347    331 1
   373    348    337 1
   374    371    355 1
   375    372    355 1
   376    373    356 1
   377    374    358 1
   378    375    360 1
   379    376    360 1
   380    377    361 1
   381    378    365 1
   382    379    370 1
   383    125    113 1
   384    126    113 1
   385    187    175 1
   386    188    175 1
   387    220    208 1
   388    221    208 1
   389    285    273 1
   390    286    273 1
   391     31     17 1
   392     32     17 1
   393    157    143 1
   394    158    143 1
   395    317    303 1
   396    318    303 1
   397    349    335 1
   398    350    335 1
   399     62     51 1
   400     63     51 1
   401     64     51 1
   402     94     83 1
   403     95     83 1
   404     96     83 1
   405    251    240 1
   406    252    240 1
   407    253    240 1
   408    380    369 1
   409    381    369 1
   410    382    369 1
   411    167    383 1
   412    189    997 1
   413    391    416 1
   414    424    448 1
   415    456    481 1
   416    489    513 1
   417    521    545 1
   418    553    577 1
   419    585    609 1
   420    617    639 1
   421    647    671 1
   422    709    734 1
   423    742    766 1
   424    774    799 1
   425    807    831 1
   426    839    863 1
   427    871    895 1
   428    903    927 1
   429    935    957 1
   430    965    989 1
   431    383    384 1
   432    383    385 1
   433    383    386 1
   434    386    387 1
   435    387    388 1
   436    388    389 1
   437    388    390 1
   438    389    393 1
   439    390    391 1
   440    390    392 1
   441    392    393 1
   442    393    394 1
   443    394    395 ar
   444    394    404 ar
   445    395    396 ar
   446    396    397 ar
   447    397    398 1
   448    397    404 ar
   449    398    399 2
   450    398    400 am
   451    400    401 1
   452    401    402 2
   453    401    403 2
   454    403    404 1
   455    416    417 1
   456    416    418 1
   457    416    419 1
   458    419    420 1
   459    420    421 1
   460    421    422 1
   461    421    423 1
   462    422    426 1
   463    423    424 1
   464    423    425 1
   465    425    426 1
   466    426    427 1
   467    427    428 am
   468    427    435 1
   469    428    429 2
   470    428    430 am
   471    430    431 am
   472    431    432 2
   473    431    433 1
   474    433    434 1
   475    433    435 2
   476    448    449 1
   477    448    450 1
   478    448    451 1
   479    451    452 1
   480    452    453 1
   481    453    454 1
   482    453    455 1
   483    454    458 1
   484    455    456 1
   485    455    457 1
   486    457    458 1
   487    458    459 1
   488    459    460 ar
   489    459    469 ar
   490    460    461 ar
   491    461    462 ar
   492    462    463 1
   493    462    469 ar
   494    463    464 2
   495    463    465 am
   496    465    466 1
   497    466    467 2
   498    466    468 2
   499    468    469 1
   500    481    482 1
   501    481    483 1
   502    481    484 1
   503    484    485 1
   504    485    486 1
   505    486    487 1
   506    486    488 1
   507    487    491 1
   508    488    489 1
   509    488    490 1
   510    490    491 1
   511    491    492 1
   512    492    493 ar
   513    492    501 ar
   514    493    494 ar
   515    494    495 ar
   516    495    496 ar
   517    495    501 ar
   518    496    497 1
   519    496    498 ar
   520    498    499 ar
   521    499    500 ar
   522    500    501 ar
   523    513    514 1
   524    513    515 1
   525    513    516 1
   526    516    517 1
   527    517    518 1
   528    518    519 1
   529    518    520 1
   530    519    523 1
   531    520    521 1
   532    520    522 1
   533    522    523 1
   534    523    524 1
   535    524    525 ar
   536    524    533 ar
   537    525    526 ar
   538    526    527 ar
   539    527    528 ar
   540    527    533 ar
   541    528    529 1
   542    528    530 ar
   543    530    531 ar
   544    531    532 ar
   545    532    533 ar
   546    545    546 1
   547    545    547 1
   548    545    548 1
   549    548    549 1
   550    549    550 1
   551    550    551 1
   552    550    552 1
   553    551    555 1
   554    552    553 1
   555    552    554 1
   556    554    555 1
   557    555    556 1
   558    556    557 am
   559    556    564 1
   560    557    558 2
   561    557    559 am
   562    559    560 am
   563    560    561 2
   564    560    562 1
   565    562    563 1
   566    562    564 2
   567    577    578 1
   568    577    579 1
   569    577    580 1
   570    580    581 1
   571    581    582 1
   572    582    583 1
   573    582    584 1
   574    583    587 1
   575    584    585 1
   576    584    586 1
   577    586    587 1
   578    587    588 1
   579    588    589 am
   580    588    596 1
   581    589    590 2
   582    589    591 am
   583    591    592 am
   584    592    593 2
   585    592    594 1
   586    594    595 1
   587    594    596 2
   588    609    610 1
   589    609    611 1
   590    609    612 1
   591    612    613 1
   592    613    614 1
   593    614    615 1
   594    614    616 1
   595    615    619 1
   596    616    617 1
   597    616    618 1
   598    618    619 1
   599    619    620 1
   600    620    621 am
   601    620    627 1
   602    621    622 2
   603    621    623 1
   604    623    624 2
   605    624    625 2
   606    624    626 2
   607    626    627 2
   608    639    640 1
   609    639    641 1
   610    639    642 1
   611    642    643 1
   612    643    644 1
   613    644    645 1
   614    644    646 1
   615    645    649 1
   616    646    647 1
   617    646    648 1
   618    648    649 1
   619    649    650 1
   620    650    651 ar
   621    650    659 ar
   622    651    652 ar
   623    652    653 ar
   624    653    654 ar
   625    653    659 ar
   626    654    655 1
   627    654    656 ar
   628    656    657 ar
   629    657    658 ar
   630    658    659 ar
   631    671    672 1
   632    671    673 1
   633    671    674 1
   634    674    675 1
   635    675    676 1
   636    676    677 1
   637    676    678 1
   638    677    681 1
   639    678    679 1
   640    678    680 1
   641    680    681 1
   642    681    682 1
   643    682    683 am
   644    682    689 1
   645    683    684 2
   646    683    685 1
   647    685    686 2
   648    686    687 2
   649    686    688 2
   650    688    689 2
   651    701    702 1
   652    701    703 1
   653    701    704 1
   654    704    705 1
   655    705    706 1
   656    706    707 1
   657    706    708 1
   658    707    711 1
   659    708    709 1
   660    708    710 1
   661    710    711 1
   662    711    712 1
   663    712    713 ar
   664    712    722 ar
   665    713    714 ar
   666    714    715 ar
   667    715    716 1
   668    715    722 ar
   669    716    717 2
   670    716    718 am
   671    718    719 1
   672    719    720 2
   673    719    721 2
   674    721    722 1
   675    734    735 1
   676    734    736 1
   677    734    737 1
   678    737    738 1
   679    738    739 1
   680    739    740 1
   681    739    741 1
   682    740    744 1
   683    741    742 1
   684    741    743 1
   685    743    744 1
   686    744    745 1
   687    745    746 am
   688    745    753 1
   689    746    747 2
   690    746    748 am
   691    748    749 am
   692    749    750 2
   693    749    751 1
   694    751    752 1
   695    751    753 2
   696    766    767 1
   697    766    768 1
   698    766    769 1
   699    769    770 1
   700    770    771 1
   701    771    772 1
   702    771    773 1
   703    772    776 1
   704    773    774 1
   705    773    775 1
   706    775    776 1
   707    776    777 1
   708    777    778 ar
   709    777    787 ar
   710    778    779 ar
   711    779    780 ar
   712    780    781 1
   713    780    787 ar
   714    781    782 2
   715    781    783 am
   716    783    784 1
   717    784    785 2
   718    784    786 2
   719    786    787 1
   720    799    800 1
   721    799    801 1
   722    799    802 1
   723    802    803 1
   724    803    804 1
   725    804    805 1
   726    804    806 1
   727    805    809 1
   728    806    807 1
   729    806    808 1
   730    808    809 1
   731    809    810 1
   732    810    811 ar
   733    810    819 ar
   734    811    812 ar
   735    812    813 ar
   736    813    814 ar
   737    813    819 ar
   738    814    815 1
   739    814    816 ar
   740    816    817 ar
   741    817    818 ar
   742    818    819 ar
   743    831    832 1
   744    831    833 1
   745    831    834 1
   746    834    835 1
   747    835    836 1
   748    836    837 1
   749    836    838 1
   750    837    841 1
   751    838    839 1
   752    838    840 1
   753    840    841 1
   754    841    842 1
   755    842    843 ar
   756    842    851 ar
   757    843    844 ar
   758    844    845 ar
   759    845    846 ar
   760    845    851 ar
   761    846    847 1
   762    846    848 ar
   763    848    849 ar
   764    849    850 ar
   765    850    851 ar
   766    863    864 1
   767    863    865 1
   768    863    866 1
   769    866    867 1
   770    867    868 1
   771    868    869 1
   772    868    870 1
   773    869    873 1
   774    870    871 1
   775    870    872 1
   776    872    873 1
   777    873    874 1
   778    874    875 am
   779    874    882 1
   780    875    876 2
   781    875    877 am
   782    877    878 am
   783    878    879 2
   784    878    880 1
   785    880    881 1
   786    880    882 2
   787    895    896 1
   788    895    897 1
   789    895    898 1
   790    898    899 1
   791    899    900 1
   792    900    901 1
   793    900    902 1
   794    901    905 1
   795    902    903 1
   796    902    904 1
   797    904    905 1
   798    905    906 1
   799    906    907 am
   800    906    914 1
   801    907    908 2
   802    907    909 am
   803    909    910 am
   804    910    911 2
   805    910    912 1
   806    912    913 1
   807    912    914 2
   808    927    928 1
   809    927    929 1
   810    927    930 1
   811    930    931 1
   812    931    932 1
   813    932    933 1
   814    932    934 1
   815    933    937 1
   816    934    935 1
   817    934    936 1
   818    936    937 1
   819    937    938 1
   820    938    939 am
   821    938    945 1
   822    939    940 2
   823    939    941 1
   824    941    942 2
   825    942    943 2
   826    942    944 2
   827    944    945 2
   828    957    958 1
   829    957    959 1
   830    957    960 1
   831    960    961 1
   832    961    962 1
   833    962    963 1
   834    962    964 1
   835    963    967 1
   836    964    965 1
   837    964    966 1
   838    966    967 1
   839    967    968 1
   840    968    969 ar
   841    968    977 ar
   842    969    970 ar
   843    970    971 ar
   844    971    972 ar
   845    971    977 ar
   846    972    973 1
   847    972    974 ar
   848    974    975 ar
   849    975    976 ar
   850    976    977 ar
   851    989    990 1
   852    989    991 1
   853    989    992 1
   854    992    993 1
   855    993    994 1
   856    994    995 1
   857    994    996 1
   858    995    999 1
   859    996    997 1
   860    996    998 1
   861    998    999 1
   862    999   1000 1
   863   1000   1001 am
   864   1000   1007 1
   865   1001   1002 2
   866   1001   1003 1
   867   1003   1004 2
   868   1004   1005 2
   869   1004   1006 2
   870   1006   1007 2
   871    405    387 1
   872    406    387 1
   873    407    388 1
   874    408    390 1
   875    409    392 1
   876    410    392 1
   877    411    393 1
   878    412    395 1
   879    413    400 1
   880    436    420 1
   881    437    420 1
   882    438    421 1
   883    439    423 1
   884    440    425 1
   885    441    425 1
   886    442    426 1
   887    443    430 1
   888    444    435 1
   889    470    452 1
   890    471    452 1
   891    472    453 1
   892    473    455 1
   893    474    457 1
   894    475    457 1
   895    476    458 1
   896    477    460 1
   897    478    465 1
   898    502    485 1
   899    503    485 1
   900    504    486 1
   901    505    488 1
   902    506    490 1
   903    507    490 1
   904    508    491 1
   905    509    493 1
   906    510    499 1
   907    534    517 1
   908    535    517 1
   909    536    518 1
   910    537    520 1
   911    538    522 1
   912    539    522 1
   913    540    523 1
   914    541    525 1
   915    542    531 1
   916    565    549 1
   917    566    549 1
   918    567    550 1
   919    568    552 1
   920    569    554 1
   921    570    554 1
   922    571    555 1
   923    572    559 1
   924    573    564 1
   925    597    581 1
   926    598    581 1
   927    599    582 1
   928    600    584 1
   929    601    586 1
   930    602    586 1
   931    603    587 1
   932    604    591 1
   933    605    596 1
   934    628    613 1
   935    629    613 1
   936    630    614 1
   937    631    616 1
   938    632    618 1
   939    633    618 1
   940    634    619 1
   941    635    626 1
   942    636    627 1
   943    660    643 1
   944    661    643 1
   945    662    644 1
   946    663    646 1
   947    664    648 1
   948    665    648 1
   949    666    649 1
   950    667    651 1
   951    668    657 1
   952    690    675 1
   953    691    675 1
   954    692    676 1
   955    693    678 1
   956    694    680 1
   957    695    680 1
   958    696    681 1
   959    697    688 1
   960    698    689 1
   961    723    705 1
   962    724    705 1
   963    725    706 1
   964    726    708 1
   965    727    710 1
   966    728    710 1
   967    729    711 1
   968    730    713 1
   969    731    718 1
   970    754    738 1
   971    755    738 1
   972    756    739 1
   973    757    741 1
   974    758    743 1
   975    759    743 1
   976    760    744 1
   977    761    748 1
   978    762    753 1
   979    788    770 1
   980    789    770 1
   981    790    771 1
   982    791    773 1
   983    792    775 1
   984    793    775 1
   985    794    776 1
   986    795    778 1
   987    796    783 1
   988    820    803 1
   989    821    803 1
   990    822    804 1
   991    823    806 1
   992    824    808 1
   993    825    808 1
   994    826    809 1
   995    827    811 1
   996    828    817 1
   997    852    835 1
   998    853    835 1
   999    854    836 1
  1000    855    838 1
  1001    856    840 1
  1002    857    840 1
  1003    858    841 1
  1004    859    843 1
  1005    860    849 1
  1006    883    867 1
  1007    884    867 1
  1008    885    868 1
  1009    886    870 1
  1010    887    872 1
  1011    888    872 1
  1012    889    873 1
  1013    890    877 1
  1014    891    882 1
  1015    915    899 1
  1016    916    899 1
  1017    917    900 1
  1018    918    902 1
  1019    919    904 1
  1020    920    904 1
  1021    921    905 1
  1022    922    909 1
  1023    923    914 1
  1024    946    931 1
  1025    947    931 1
  1026    948    932 1
  1027    949    934 1
  1028    950    936 1
  1029    951    936 1
  1030    952    937 1
  1031    953    944 1
  1032    954    945 1
  1033    978    961 1
  1034    979    961 1
  1035    980    962 1
  1036    981    964 1
  1037    982    966 1
  1038    983    966 1
  1039    984    967 1
  1040    985    969 1
  1041    986    975 1
  1042   1008    993 1
  1043   1009    993 1
  1044   1010    994 1
  1045   1011    996 1
  1046   1012    998 1
  1047   1013    998 1
  1048   1014    999 1
  1049   1015   1006 1
  1050   1016   1007 1
  1051    414    402 1
  1052    415    402 1
  1053    479    467 1
  1054    480    467 1
  1055    637    625 1
  1056    638    625 1
  1057    699    687 1
  1058    700    687 1
  1059    732    720 1
  1060    733    720 1
  1061    797    785 1
  1062    798    785 1
  1063    955    943 1
  1064    956    943 1
  1065   1017   1005 1
  1066   1018   1005 1
  1067    511    497 1
  1068    512    497 1
  1069    543    529 1
  1070    544    529 1
  1071    669    655 1
  1072    670    655 1
  1073    829    815 1
  1074    830    815 1
  1075    861    847 1
  1076    862    847 1
  1077    987    973 1
  1078    988    973 1
  1079    445    434 1
  1080    446    434 1
  1081    447    434 1
  1082    574    563 1
  1083    575    563 1
  1084    576    563 1
  1085    606    595 1
  1086    607    595 1
  1087    608    595 1
  1088    763    752 1
  1089    764    752 1
  1090    765    752 1
  1091    892    881 1
  1092    893    881 1
  1093    894    881 1
  1094    924    913 1
  1095    925    913 1
  1096    926    913 1
  1097    679   1019 1
  1098    701   1633 1
  1099   1027   1052 1
  1100   1060   1084 1
  1101   1092   1117 1
  1102   1125   1149 1
  1103   1157   1181 1
  1104   1189   1213 1
  1105   1221   1245 1
  1106   1253   1275 1
  1107   1283   1307 1
  1108   1345   1370 1
  1109   1378   1402 1
  1110   1410   1435 1
  1111   1443   1467 1
  1112   1475   1499 1
  1113   1507   1531 1
  1114   1539   1563 1
  1115   1571   1593 1
  1116   1601   1625 1
  1117   1019   1020 1
  1118   1019   1021 1
  1119   1019   1022 1
  1120   1022   1023 1
  1121   1023   1024 1
  1122   1024   1025 1
  1123   1024   1026 1
  1124   1025   1029 1
  1125   1026   1027 1
  1126   1026   1028 1
  1127   1028   1029 1
  1128   1029   1030 1
  1129   1030   1031 ar
  1130   1030   1040 ar
  1131   1031   1032 ar
  1132   1032   1033 ar
  1133   1033   1034 1
  1134   1033   1040 ar
  1135   1034   1035 2
  1136   1034   1036 am
  1137   1036   1037 1
  1138   1037   1038 2
  1139   1037   1039 2
  1140   1039   1040 1
  1141   1052   1053 1
  1142   1052   1054 1
  1143   1052   1055 1
  1144   1055   1056 1
  1145   1056   1057 1
  1146   1057   1058 1
  1147   1057   1059 1
  1148   1058   1062 1
  1149   1059   1060 1
  1150   1059   1061 1
  1151   1061   1062 1
  1152   1062   1063 1
  1153   1063   1064 am
  1154   1063   1071 1
  1155   1064   1065 2
  1156   1064   1066 am
  1157   1066   1067 am
  1158   1067   1068 2
  1159   1067   1069 1
  1160   1069   1070 1
  1161   1069   1071 2
  1162   1084   1085 1
  1163   1084   1086 1
  1164   1084   1087 1
  1165   1087   1088 1
  1166   1088   1089 1
  1167   1089   1090 1
  1168   1089   1091 1
  1169   1090   1094 1
  1170   1091   1092 1
  1171   1091   1093 1
  1172   1093   1094 1
  1173   1094   1095 1
  1174   1095   1096 ar
  1175   1095   1105 ar
  1176   1096   1097 ar
  1177   1097   1098 ar
  1178   1098   1099 1
  1179   1098   1105 ar
  1180   1099   1100 2
  1181   1099   1101 am
  1182   1101   1102 1
  1183   1102   1103 2
  1184   1102   1104 2
  1185   1104   1105 1
  1186   1117   1118 1
  1187   1117   1119 1
  1188   1117   1120 1
  1189   1120   1121 1
  1190   1121   1122 1
  1191   1122   1123 1
  1192   1122   1124 1
  1193   1123   1127 1
  1194   1124   1125 1
  1195   1124   1126 1
  1196   1126   1127 1
  1197   1127   1128 1
  1198   1128   1129 ar
  1199   1128   1137 ar
  1200   1129   1130 ar
  1201   1130   1131 ar
  1202   1131   1132 ar
  1203   1131   1137 ar
  1204   1132   1133 1
  1205   1132   1134 ar
  1206   1134   1135 ar
  1207   1135   1136 ar
  1208   1136   1137 ar
  1209   1149   1150 1
  1210   1149   1151 1
  1211   1149   1152 1
  1212   1152   1153 1
  1213   1153   1154 1
  1214   1154   1155 1
  1215   1154   1156 1
  1216   1155   1159 1
  1217   1156   1157 1
  1218   1156   1158 1
  1219   1158   1159 1
  1220   1159   1160 1
  1221   1160   1161 ar
  1222   1160   1169 ar
  1223   1161   1162 ar
  1224   1162   1163 ar
  1225   1163   1164 ar
  1226   1163   1169 ar
  1227   1164   1165 1
  1228   1164   1166 ar
  1229   1166   1167 ar
  1230   1167   1168 ar
  1231   1168   1169 ar
  1232   1181   1182 1
  1233   1181   1183 1
  1234   1181   1184 1
  1235   1184   1185 1
  1236   1185   1186 1
  1237   1186   1187 1
  1238   1186   1188 1
  1239   1187   1191 1
  1240   1188   1189 1
  1241   1188   1190 1
  1242   1190   1191 1
  1243   1191   1192 1
  1244   1192   1193 am
  1245   1192   1200 1
  1246   1193   1194 2
  1247   1193   1195 am
  1248   1195   1196 am
  1249   1196   1197 2
  1250   1196   1198 1
  1251   1198   1199 1
  1252   1198   1200 2
  1253   1213   1214 1
  1254   1213   1215 1
  1255   1213   1216 1
  1256   1216   1217 1
  1257   1217   1218 1
  1258   1218   1219 1
  1259   1218   1220 1
  1260   1219   1223 1
  1261   1220   1221 1
  1262   1220   1222 1
  1263   1222   1223 1
  1264   1223   1224 1
  1265   1224   1225 am
  1266   1224   1232 1
  1267   1225   1226 2
  1268   1225   1227 am
  1269   1227   1228 am
  1270   1228   1229 2
  1271   1228   1230 1
  1272   1230   1231 1
  1273   1230   1232 2
  1274   1245   1246 1
  1275   1245   1247 1
  1276   1245   1248 1
  1277   1248   1249 1
  1278   1249   1250 1
  1279   1250   1251 1
  1280   1250   1252 1
  1281   1251   1255 1
  1282   1252   1253 1
  1283   1252   1254 1
  1284   1254   1255 1
  1285   1255   1256 1
  1286   1256   1257 am
  1287   1256   1263 1
  1288   1257   1258 2
  1289   1257   1259 1
  1290   1259   1260 2
  1291   1260   1261 2
  1292   1260   1262 2
  1293   1262   1263 2
  1294   1275   1276 1
  1295   1275   1277 1
  1296   1275   1278 1
  1297   1278   1279 1
  1298   1279   1280 1
  1299   1280   1281 1
  1300   1280   1282 1
  1301   1281   1285 1
  1302   1282   1283 1
  1303   1282   1284 1
  1304   1284   1285 1
  1305   1285   1286 1
  1306   1286   1287 ar
  1307   1286   1295 ar
  1308   1287   1288 ar
  1309   1288   1289 ar
  1310   1289   1290 ar
  1311   1289   1295 ar
  1312   1290   1291 1
  1313   1290   1292 ar
  1314   1292   1293 ar
  1315   1293   1294 ar
  1316   1294   1295 ar
  1317   1307   1308 1
  1318   1307   1309 1
  1319   1307   1310 1
  1320   1310   1311 1
  1321   1311   1312 1
  1322   1312   1313 1
  1323   1312   1314 1
  1324   1313   1317 1
  1325   1314   1315 1
  1326   1314   1316 1
  1327   1316   1317 1
  1328   1317   1318 1
  1329   1318   1319 am
  1330   1318   1325 1
  1331   1319   1320 2
  1332   1319   1321 1
  1333   1321   1322 2
  1334   1322   1323 2
  1335   1322   1324 2
  1336   1324   1325 2
  1337   1337   1338 1
  1338   1337   1339 1
  1339   1337   1340 1
  1340   1340   1341 1
  1341   1341   1342 1
  1342   1342   1343 1
  1343   1342   1344 1
  1344   1343   1347 1
  1345   1344   1345 1
  1346   1344   1346 1
  1347   1346   1347 1
  1348   1347   1348 1
  1349   1348   1349 ar
  1350   1348   1358 ar
  1351   1349   1350 ar
  1352   1350   1351 ar
  1353   1351   1352 1
  1354   1351   1358 ar
  1355   1352   1353 2
  1356   1352   1354 am
  1357   1354   1355 1
  1358   1355   1356 2
  1359   1355   1357 2
  1360   1357   1358 1
  1361   1370   1371 1
  1362   1370   1372 1
  1363   1370   1373 1
  1364   1373   1374 1
  1365   1374   1375 1
  1366   1375   1376 1
  1367   1375   1377 1
  1368   1376   1380 1
  1369   1377   1378 1
  1370   1377   1379 1
  1371   1379   1380 1
  1372   1380   1381 1
  1373   1381   1382 am
  1374   1381   1389 1
  1375   1382   1383 2
  1376   1382   1384 am
  1377   1384   1385 am
  1378   1385   1386 2
  1379   1385   1387 1
  1380   1387   1388 1
  1381   1387   1389 2
  1382   1402   1403 1
  1383   1402   1404 1
  1384   1402   1405 1
  1385   1405   1406 1
  1386   1406   1407 1
  1387   1407   1408 1
  1388   1407   1409 1
  1389   1408   1412 1
  1390   1409   1410 1
  1391   1409   1411 1
  1392   1411   1412 1
  1393   1412   1413 1
  1394   1413   1414 ar
  1395   1413   1423 ar
  1396   1414   1415 ar
  1397   1415   1416 ar
  1398   1416   1417 1
  1399   1416   1423 ar
  1400   1417   1418 2
  1401   1417   1419 am
  1402   1419   1420 1
  1403   1420   1421 2
  1404   1420   1422 2
  1405   1422   1423 1
  1406   1435   1436 1
  1407   1435   1437 1
  1408   1435   1438 1
  1409   1438   1439 1
  1410   1439   1440 1
  1411   1440   1441 1
  1412   1440   1442 1
  1413   1441   1445 1
  1414   1442   1443 1
  1415   1442   1444 1
  1416   1444   1445 1
  1417   1445   1446 1
  1418   1446   1447 ar
  1419   1446   1455 ar
  1420   1447   1448 ar
  1421   1448   1449 ar
  1422   1449   1450 ar
  1423   1449   1455 ar
  1424   1450   1451 1
  1425   1450   1452 ar
  1426   1452   1453 ar
  1427   1453   1454 ar
  1428   1454   1455 ar
  1429   1467   1468 1
  1430   1467   1469 1
  1431   1467   1470 1
  1432   1470   1471 1
  1433   1471   1472 1
  1434   1472   1473 1
  1435   1472   1474 1
  1436   1473   1477 1
  1437   1474   1475 1
  1438   1474   1476 1
  1439   1476   1477 1
  1440   1477   1478 1
  1441   1478   1479 ar
  1442   1478   1487 ar
  1443   1479   1480 ar
  1444   1480   1481 ar
  1445   1481   1482 ar
  1446   1481   1487 ar
  1447   1482   1483 1
  1448   1482   1484 ar
  1449   1484   1485 ar
  1450   1485   1486 ar
  1451   1486   1487 ar
  1452   1499   1500 1
  1453   1499   1501 1
  1454   1499   1502 1
  1455   1502   1503 1
  1456   1503   1504 1
  1457   1504   1505 1
  1458   1504   1506 1
  1459   1505   1509 1
  1460   1506   1507 1
  1461   1506   1508 1
  1462   1508   1509 1
  1463   1509   1510 1
  1464   1510   1511 am
  1465   1510   1518 1
  1466   1511   1512 2
  1467   1511   1513 am
  1468   1513   1514 am
  1469   1514   1515 2
  1470   1514   1516 1
  1471   1516   1517 1
  1472   1516   1518 2
  1473   1531   1532 1
  1474   1531   1533 1
  1475   1531   1534 1
  1476   1534   1535 1
  1477   1535   1536 1
  1478   1536   1537 1
  1479   1536   1538 1
  1480   1537   1541 1
  1481   1538   1539 1
  1482   1538   1540 1
  1483   1540   1541 1
  1484   1541   1542 1
  1485   1542   1543 am
  1486   1542   1550 1
  1487   1543   1544 2
  1488   1543   1545 am
  1489   1545   1546 am
  1490   1546   1547 2
  1491   1546   1548 1
  1492   1548   1549 1
  1493   1548   1550 2
  1494   1563   1564 1
  1495   1563   1565 1
  1496   1563   1566 1
  1497   1566   1567 1
  1498   1567   1568 1
  1499   1568   1569 1
  1500   1568   1570 1
  1501   1569   1573 1
  1502   1570   1571 1
  1503   1570   1572 1
  1504   1572   1573 1
  1505   1573   1574 1
  1506   1574   1575 am
  1507   1574   1581 1
  1508   1575   1576 2
  1509   1575   1577 1
  1510   1577   1578 2
  1511   1578   1579 2
  1512   1578   1580 2
  1513   1580   1581 2
  1514   1593   1594 1
  1515   1593   1595 1
  1516   1593   1596 1
  1517   1596   1597 1
  1518   1597   1598 1
  1519   1598   1599 1
  1520   1598   1600 1
  1521   1599   1603 1
  1522   1600   1601 1
  1523   1600   1602 1
  1524   1602   1603 1
  1525   1603   1604 1
  1526   1604   1605 ar
  1527   1604   1613 ar
  1528   1605   1606 ar
  1529   1606   1607 ar
  1530   1607   1608 ar
  1531   1607   1613 ar
  1532   1608   1609 1
  1533   1608   1610 ar
  1534   1610   1611 ar
  1535   1611   1612 ar
  1536   1612   1613 ar
  1537   1625   1626 1
  1538   1625   1627 1
  1539   1625   1628 1
  1540   1628   1629 1
  1541   1629   1630 1
  1542   1630   1631 1
  1543   1630   1632 1
  1544   1631   1635 1
  1545   1632   1633 1
  1546   1632   1634 1
  1547   1634   1635 1
  1548   1635   1636 1
  1549   1636   1637 am
  1550   1636   1643 1
  1551   1637   1638 2
  1552   1637   1639 1
  1553   1639   1640 2
  1554   1640   1641 2
  1555   1640   1642 2
  1556   1642   1643 2
  1557   1041   1023 1
  1558   1042   1023 1
  1559   1043   1024 1
  1560   1044   1026 1
  1561   1045   1028 1
  1562   1046   1028 1
  1563   1047   1029 1
  1564   1048   1031 1
  1565   1049   1036 1
  1566   1072   1056 1
  1567   1073   1056 1
  1568   1074   1057 1
  1569   1075   1059 1
  1570   1076   1061 1
  1571   1077   1061 1
  1572   1078   1062 1
  1573   1079   1066 1
  1574   1080   1071 1
  1575   1106   1088 1
  1576   1107   1088 1
  1577   1108   1089 1
  1578   1109   1091 1
  1579   1110   1093 1
  1580   1111   1093 1
  1581   1112   1094 1
  1582   1113   1096 1
  1583   1114   1101 1
  1584   1138   1121 1
  1585   1139   1121 1
  1586   1140   1122 1
  1587   1141   1124 1
  1588   1142   1126 1
  1589   1143   1126 1
  1590   1144   1127 1
  1591   1145   1129 1
  1592   1146   1135 1
  1593   1170   1153 1
  1594   1171   1153 1
  1595   1172   1154 1
  1596   1173   1156 1
  1597   1174   1158 1
  1598   1175   1158 1
  1599   1176   1159 1
  1600   1177   1161 1
  1601   1178   1167 1
  1602   1201   1185 1
  1603   1202   1185 1
  1604   1203   1186 1
  1605   1204   1188 1
  1606   1205   1190 1
  1607   1206   1190 1
  1608   1207   1191 1
  1609   1208   1195 1
  1610   1209   1200 1
  1611   1233   1217 1
  1612   1234   1217 1
  1613   1235   1218 1
  1614   1236   1220 1
  1615   1237   1222 1
  1616   1238   1222 1
  1617   1239   1223 1
  1618   1240   1227 1
  1619   1241   1232 1
  1620   1264   1249 1
  1621   1265   1249 1
  1622   1266   1250 1
  1623   1267   1252 1
  1624   1268   1254 1
  1625   1269   1254 1
  1626   1270   1255 1
  1627   1271   1262 1
  1628   1272   1263 1
  1629   1296   1279 1
  1630   1297   1279 1
  1631   1298   1280 1
  1632   1299   1282 1
  1633   1300   1284 1
  1634   1301   1284 1
  1635   1302   1285 1
  1636   1303   1287 1
  1637   1304   1293 1
  1638   1326   1311 1
  1639   1327   1311 1
  1640   1328   1312 1
  1641   1329   1314 1
  1642   1330   1316 1
  1643   1331   1316 1
  1644   1332   1317 1
  1645   1333   1324 1
  1646   1334   1325 1
  1647   1359   1341 1
  1648   1360   1341 1
  1649   1361   1342 1
  1650   1362   1344 1
  1651   1363   1346 1
  1652   1364   1346 1
  1653   1365   1347 1
  1654   1366   1349 1
  1655   1367   1354 1
  1656   1390   1374 1
  1657   1391   1374 1
  1658   1392   1375 1
  1659   1393   1377 1
  1660   1394   1379 1
  1661   1395   1379 1
  1662   1396   1380 1
  1663   1397   1384 1
  1664   1398   1389 1
  1665   1424   1406 1
  1666   1425   1406 1
  1667   1426   1407 1
  1668   1427   1409 1
  1669   1428   1411 1
  1670   1429   1411 1
  1671   1430   1412 1
  1672   1431   1414 1
  1673   1432   1419 1
  1674   1456   1439 1
  1675   1457   1439 1
  1676   1458   1440 1
  1677   1459   1442 1
  1678   1460   1444 1
  1679   1461   1444 1
  1680   1462   1445 1
  1681   1463   1447 1
  1682   1464   1453 1
  1683   1488   1471 1
  1684   1489   1471 1
  1685   1490   1472 1
  1686   1491   1474 1
  1687   1492   1476 1
  1688   1493   1476 1
  1689   1494   1477 1
  1690   1495   1479 1
  1691   1496   1485 1
  1692   1519   1503 1
  1693   1520   1503 1
  1694   1521   1504 1
  1695   1522   1506 1
  1696   1523   1508 1
  1697   1524   1508 1
  1698   1525   1509 1
  1699   1526   1513 1
  1700   1527   1518 1
  1701   1551   1535 1
  1702   1552   1535 1
  1703   1553   1536 1
  1704   1554   1538 1
  1705   1555   1540 1
  1706   1556   1540 1
  1707   1557   1541 1
  1708   1558   1545 1
  1709   1559   1550 1
  1710   1582   1567 1
  1711   1583   1567 1
  1712   1584   1568 1
  1713   1585   1570 1
  1714   1586   1572 1
  1715   1587   1572 1
  1716   1588   1573 1
  1717   1589   1580 1
  1718   1590   1581 1
  1719   1614   1597 1
  1720   1615   1597 1
  1721   1616   1598 1
  1722   1617   1600 1
  1723   1618   1602 1
  1724   1619   1602 1
  1725   1620   1603 1
  1726   1621   1605 1
  1727   1622   1611 1
  1728   1644   1629 1
  1729   1645   1629 1
  1730   1646   1630 1
  1731   1647   1632 1
  1732   1648   1634 1
  1733   1649   1634 1
  1734   1650   1635 1
  1735   1651   1642 1
  1736   1652   1643 1
  1737   1050   1038 1
  1738   1051   1038 1
  1739   1115   1103 1
  1740   1116   1103 1
  1741   1273   1261 1
  1742   1274   1261 1
  1743   1335   1323 1
  1744   1336   1323 1
  1745   1368   1356 1
  1746   1369   1356 1
  1747   1433   1421 1
  1748   1434   1421 1
  1749   1591   1579 1
  1750   1592   1579 1
  1751   1653   1641 1
  1752   1654   1641 1
  1753   1147   1133 1
  1754   1148   1133 1
  1755   1179   1165 1
  1756   1180   1165 1
  1757   1305   1291 1
  1758   1306   1291 1
  1759   1465   1451 1
  1760   1466   1451 1
  1761   1497   1483 1
  1762   1498   1483 1
  1763   1623   1609 1
  1764   1624   1609 1
  1765   1081   1070 1
  1766   1082   1070 1
  1767   1083   1070 1
  1768   1210   1199 1
  1769   1211   1199 1
  1770   1212   1199 1
  1771   1242   1231 1
  1772   1243   1231 1
  1773   1244   1231 1
  1774   1399   1388 1
  1775   1400   1388 1
  1776   1401   1388 1
  1777   1528   1517 1
  1778   1529   1517 1
  1779   1530   1517 1
  1780   1560   1549 1
  1781   1561   1549 1
  1782   1562   1549 1
  1783   1315   1655 1
  1784   1337   2079 1
  1785   1663   1688 1
  1786   1696   1720 1
  1787   1728   1753 1
  1788   1761   1785 1
  1789   1793   1817 1
  1790   1825   1849 1
  1791   1889   1913 1
  1792   1921   1945 1
  1793   1953   1977 1
  1794   1985   2009 1
  1795   2017   2039 1
  1796   2047   2071 1
  1797   1655   1656 1
  1798   1655   1657 1
  1799   1655   1658 1
  1800   1658   1659 1
  1801   1659   1660 1
  1802   1660   1661 1
  1803   1660   1662 1
  1804   1661   1665 1
  1805   1662   1663 1
  1806   1662   1664 1
  1807   1664   1665 1
  1808   1665   1666 1
  1809   1666   1667 ar
  1810   1666   1676 ar
  1811   1667   1668 ar
  1812   1668   1669 ar
  1813   1669   1670 1
  1814   1669   1676 ar
  1815   1670   1671 2
  1816   1670   1672 am
  1817   1672   1673 1
  1818   1673   1674 2
  1819   1673   1675 2
  1820   1675   1676 1
  1821   1688   1689 1
  1822   1688   1690 1
  1823   1688   1691 1
  1824   1691   1692 1
  1825   1692   1693 1
  1826   1693   1694 1
  1827   1693   1695 1
  1828   1694   1698 1
  1829   1695   1696 1
  1830   1695   1697 1
  1831   1697   1698 1
  1832   1698   1699 1
  1833   1699   1700 am
  1834   1699   1707 1
  1835   1700   1701 2
  1836   1700   1702 am
  1837   1702   1703 am
  1838   1703   1704 2
  1839   1703   1705 1
  1840   1705   1706 1
  1841   1705   1707 2
  1842   1720   1721 1
  1843   1720   1722 1
  1844   1720   1723 1
  1845   1723   1724 1
  1846   1724   1725 1
  1847   1725   1726 1
  1848   1725   1727 1
  1849   1726   1730 1
  1850   1727   1728 1
  1851   1727   1729 1
  1852   1729   1730 1
  1853   1730   1731 1
  1854   1731   1732 ar
  1855   1731   1741 ar
  1856   1732   1733 ar
  1857   1733   1734 ar
  1858   1734   1735 1
  1859   1734   1741 ar
  1860   1735   1736 2
  1861   1735   1737 am
  1862   1737   1738 1
  1863   1738   1739 2
  1864   1738   1740 2
  1865   1740   1741 1
  1866   1753   1754 1
  1867   1753   1755 1
  1868   1753   1756 1
  1869   1756   1757 1
  1870   1757   1758 1
  1871   1758   1759 1
  1872   1758   1760 1
  1873   1759   1763 1
  1874   1760   1761 1
  1875   1760   1762 1
  1876   1762   1763 1
  1877   1763   1764 1
  1878   1764   1765 ar
  1879   1764   1773 ar
  1880   1765   1766 ar
  1881   1766   1767 ar
  1882   1767   1768 ar
  1883   1767   1773 ar
  1884   1768   1769 1
  1885   1768   1770 ar
  1886   1770   1771 ar
  1887   1771   1772 ar
  1888   1772   1773 ar
  1889   1785   1786 1
  1890   1785   1787 1
  1891   1785   1788 1
  1892   1788   1789 1
  1893   1789   1790 1
  1894   1790   1791 1
  1895   1790   1792 1
  1896   1791   1795 1
  1897   1792   1793 1
  1898   1792   1794 1
  1899   1794   1795 1
  1900   1795   1796 1
  1901   1796   1797 ar
  1902   1796   1805 ar
  1903   1797   1798 ar
  1904   1798   1799 ar
  1905   1799   1800 ar
  1906   1799   1805 ar
  1907   1800   1801 1
  1908   1800   1802 ar
  1909   1802   1803 ar
  1910   1803   1804 ar
  1911   1804   1805 ar
  1912   1817   1818 1
  1913   1817   1819 1
  1914   1817   1820 1
  1915   1820   1821 1
  1916   1821   1822 1
  1917   1822   1823 1
  1918   1822   1824 1
  1919   1823   1827 1
  1920   1824   1825 1
  1921   1824   1826 1
  1922   1826   1827 1
  1923   1827   1828 1
  1924   1828   1829 am
  1925   1828   1836 1
  1926   1829   1830 2
  1927   1829   1831 am
  1928   1831   1832 am
  1929   1832   1833 2
  1930   1832   1834 1
  1931   1834   1835 1
  1932   1834   1836 2
  1933   1849   1850 1
  1934   1849   1851 1
  1935   1849   1852 1
  1936   1852   1853 1
  1937   1853   1854 1
  1938   1854   1855 1
  1939   1854   1856 1
  1940   1855   1859 1
  1941   1856   1857 1
  1942   1856   1858 1
  1943   1858   1859 1
  1944   1859   1860 1
  1945   1860   1861 am
  1946   1860   1868 1
  1947   1861   1862 2
  1948   1861   1863 am
  1949   1863   1864 am
  1950   1864   1865 2
  1951   1864   1866 1
  1952   1866   1867 1
  1953   1866   1868 2
  1954   1881   1882 1
  1955   1881   1883 1
  1956   1881   1884 1
  1957   1884   1885 1
  1958   1885   1886 1
  1959   1886   1887 1
  1960   1886   1888 1
  1961   1887   1891 1
  1962   1888   1889 1
  1963   1888   1890 1
  1964   1890   1891 1
  1965   1891   1892 1
  1966   1892   1893 ar
  1967   1892   1901 ar
  1968   1893   1894 ar
  1969   1894   1895 ar
  1970   1895   1896 ar
  1971   1895   1901 ar
  1972   1896   1897 1
  1973   1896   1898 ar
  1974   1898   1899 ar
  1975   1899   1900 ar
  1976   1900   1901 ar
  1977   1913   1914 1
  1978   1913   1915 1
  1979   1913   1916 1
  1980   1916   1917 1
  1981   1917   1918 1
  1982   1918   1919 1
  1983   1918   1920 1
  1984   1919   1923 1
  1985   1920   1921 1
  1986   1920   1922 1
  1987   1922   1923 1
  1988   1923   1924 1
  1989   1924   1925 ar
  1990   1924   1933 ar
  1991   1925   1926 ar
  1992   1926   1927 ar
  1993   1927   1928 ar
  1994   1927   1933 ar
  1995   1928   1929 1
  1996   1928   1930 ar
  1997   1930   1931 ar
  1998   1931   1932 ar
  1999   1932   1933 ar
  2000   1945   1946 1
  2001   1945   1947 1
  2002   1945   1948 1
  2003   1948   1949 1
  2004   1949   1950 1
  2005   1950   1951 1
  2006   1950   1952 1
  2007   1951   1955 1
  2008   1952   1953 1
  2009   1952   1954 1
  2010   1954   1955 1
  2011   1955   1956 1
  2012   1956   1957 am
  2013   1956   1964 1
  2014   1957   1958 2
  2015   1957   1959 am
  2016   1959   1960 am
  2017   1960   1961 2
  2018   1960   1962 1
  2019   1962   1963 1
  2020   1962   1964 2
  2021   1977   1978 1
  2022   1977   1979 1
  2023   1977   1980 1
  2024   1980   1981 1
  2025   1981   1982 1
  2026   1982   1983 1
  2027   1982   1984 1
  2028   1983   1987 1
  2029   1984   1985 1
  2030   1984   1986 1
  2031   1986   1987 1
  2032   1987   1988 1
  2033   1988   1989 am
  2034   1988   1996 1
  2035   1989   1990 2
  2036   1989   1991 am
  2037   1991   1992 am
  2038   1992   1993 2
  2039   1992   1994 1
  2040   1994   1995 1
  2041   1994   1996 2
  2042   2009   2010 1
  2043   2009   2011 1
  2044   2009   2012 1
  2045   2012   2013 1
  2046   2013   2014 1
  2047   2014   2015 1
  2048   2014   2016 1
  2049   2015   2019 1
  2050   2016   2017 1
  2051   2016   2018 1
  2052   2018   2019 1
  2053   2019   2020 1
  2054   2020   2021 am
  2055   2020   2027 1
  2056   2021   2022 2
  2057   2021   2023 1
  2058   2023   2024 2
  2059   2024   2025 2
  2060   2024   2026 2
  2061   2026   2027 2
  2062   2039   2040 1
  2063   2039   2041 1
  2064   2039   2042 1
  2065   2042   2043 1
  2066   2043   2044 1
  2067   2044   2045 1
  2068   2044   2046 1
  2069   2045   2049 1
  2070   2046   2047 1
  2071   2046   2048 1
  2072   2048   2049 1
  2073   2049   2050 1
  2074   2050   2051 ar
  2075   2050   2059 ar
  2076   2051   2052 ar
  2077   2052   2053 ar
  2078   2053   2054 ar
  2079   2053   2059 ar
  2080   2054   2055 1
  2081   2054   2056 ar
  2082   2056   2057 ar
  2083   2057   2058 ar
  2084   2058   2059 ar
  2085   2071   2072 1
  2086   2071   2073 1
  2087   2071   2074 1
  2088   2074   2075 1
  2089   2075   2076 1
  2090   2076   2077 1
  2091   2076   2078 1
  2092   2077   2081 1
  2093   2078   2079 1
  2094   2078   2080 1
  2095   2080   2081 1
  2096   2081   2082 1
  2097   2082   2083 am
  2098   2082   2089 1
  2099   2083   2084 2
  2100   2083   2085 1
  2101   2085   2086 2
  2102   2086   2087 2
  2103   2086   2088 2
  2104   2088   2089 2
  2105   1677   1659 1
  2106   1678   1659 1
  2107   1679   1660 1
  2108   1680   1662 1
  2109   1681   1664 1
  2110   1682   1664 1
  2111   1683   1665 1
  2112   1684   1667 1
  2113   1685   1672 1
  2114   1708   1692 1
  2115   1709   1692 1
  2116   1710   1693 1
  2117   1711   1695 1
  2118   1712   1697 1
  2119   1713   1697 1
  2120   1714   1698 1
  2121   1715   1702 1
  2122   1716   1707 1
  2123   1742   1724 1
  2124   1743   1724 1
  2125   1744   1725 1
  2126   1745   1727 1
  2127   1746   1729 1
  2128   1747   1729 1
  2129   1748   1730 1
  2130   1749   1732 1
  2131   1750   1737 1
  2132   1774   1757 1
  2133   1775   1757 1
  2134   1776   1758 1
  2135   1777   1760 1
  2136   1778   1762 1
  2137   1779   1762 1
  2138   1780   1763 1
  2139   1781   1765 1
  2140   1782   1771 1
  2141   1806   1789 1
  2142   1807   1789 1
  2143   1808   1790 1
  2144   1809   1792 1
  2145   1810   1794 1
  2146   1811   1794 1
  2147   1812   1795 1
  2148   1813   1797 1
  2149   1814   1803 1
  2150   1837   1821 1
  2151   1838   1821 1
  2152   1839   1822 1
  2153   1840   1824 1
  2154   1841   1826 1
  2155   1842   1826 1
  2156   1843   1827 1
  2157   1844   1831 1
  2158   1845   1836 1
  2159   1869   1853 1
  2160   1870   1853 1
  2161   1871   1854 1
  2162   1872   1856 1
  2163   1873   1858 1
  2164   1874   1858 1
  2165   1875   1859 1
  2166   1876   1863 1
  2167   1877   1868 1
  2168   1902   1885 1
  2169   1903   1885 1
  2170   1904   1886 1
  2171   1905   1888 1
  2172   1906   1890 1
  2173   1907   1890 1
  2174   1908   1891 1
  2175   1909   1893 1
  2176   1910   1899 1
  2177   1934   1917 1
  2178   1935   1917 1
  2179   1936   1918 1
  2180   1937   1920 1
  2181   1938   1922 1
  2182   1939   1922 1
  2183   1940   1923 1
  2184   1941   1925 1
  2185   1942   1931 1
  2186   1965   1949 1
  2187   1966   1949 1
  2188   1967   1950 1
  2189   1968   1952 1
  2190   1969   1954 1
  2191   1970   1954 1
  2192   1971   1955 1
  2193   1972   1959 1
  2194   1973   1964 1
  2195   1997   1981 1
  2196   1998   1981 1
  2197   1999   1982 1
  2198   2000   1984 1
  2199   2001   1986 1
  2200   2002   1986 1
  2201   2003   1987 1
  2202   2004   1991 1
  2203   2005   1996 1
  2204   2028   2013 1
  2205   2029   2013 1
  2206   2030   2014 1
  2207   2031   2016 1
  2208   2032   2018 1
  2209   2033   2018 1
  2210   2034   2019 1
  2211   2035   2026 1
  2212   2036   2027 1
  2213   2060   2043 1
  2214   2061   2043 1
  2215   2062   2044 1
  2216   2063   2046 1
  2217   2064   2048 1
  2218   2065   2048 1
  2219   2066   2049 1
  2220   2067   2051 1
  2221   2068   2057 1
  2222   2090   2075 1
  2223   2091   2075 1
  2224   2092   2076 1
  2225   2093   2078 1
  2226   2094   2080 1
  2227   2095   2080 1
  2228   2096   2081 1
  2229   2097   2088 1
  2230   2098   2089 1
  2231   1686   1674 1
  2232   1687   1674 1
  2233   1751   1739 1
  2234   1752   1739 1
  2235   2037   2025 1
  2236   2038   2025 1
  2237   2099   2087 1
  2238   2100   2087 1
  2239   1783   1769 1
  2240   1784   1769 1
  2241   1815   1801 1
  2242   1816   1801 1
  2243   1911   1897 1
  2244   1912   1897 1
  2245   1943   1929 1
  2246   1944   1929 1
  2247   2069   2055 1
  2248   2070   2055 1
  2249   1717   1706 1
  2250   1718   1706 1
  2251   1719   1706 1
  2252   1846   1835 1
  2253   1847   1835 1
  2254   1848   1835 1
  2255   1878   1867 1
  2256   1879   1867 1
  2257   1880   1867 1
  2258   1974   1963 1
  2259   1975   1963 1
  2260   1976   1963 1
  2261   2006   1995 1
  2262   2007   1995 1
  2263   2008   1995 1
@<TRIPOS>MOLECULE
dna-seg-14-bp33
2098 2261 1 0 0
BIOPOLYMER
NO_CHARGES


@<TRIPOS>ATOM
      1 P         -8.7380     2.6299  1514.6952 P.3      468 DC      0.0000
      2 OP1       -9.6486     2.0550  1513.6272 O.co2    468 DC      0.0000
      3 OP2       -9.2649     3.7943  1515.4301 O.co2    468 DC      0.0000
      4 O5'       -8.1358     1.3590  1515.5212 O.3      468 DC      0.0000
      5 C5'       -7.3820     0.6093  1514.4989 C.3      468 DC      0.0000
      6 C4'       -6.7287    -0.5503  1515.1954 C.3      468 DC      0.0000
      7 O4'       -5.3739    -0.3342  1515.4423 O.3      468 DC      0.0000
      8 C3'       -7.4061    -0.9946  1516.4869 C.3      468 DC      0.0000
      9 O3'       -7.7671    -2.3673  1516.4072 O.3      468 DC      0.0000
     10 C2'       -6.3731    -0.5770  1517.5357 C.3      468 DC      0.0000
     11 C1'       -5.0731    -0.6652  1516.8392 C.3      468 DC      0.0000
     12 N1        -4.0675     0.3490  1517.1714 N.am     468 DC      0.0000
     13 C2        -2.7837    -0.1280  1517.4272 C.2      468 DC      0.0000
     14 O2        -2.5366    -1.3379  1517.4316 O.2      468 DC      0.0000
     15 N3        -1.8077     0.7981  1517.7010 N.2      468 DC      0.0000
     16 C4        -2.0726     2.1360  1517.6911 C.2      468 DC      0.0000
     17 N4        -1.0619     2.9525  1517.9679 N.pl3    468 DC      0.0000
     18 C5        -3.3752     2.6057  1517.4131 C.2      468 DC      0.0000
     19 C6        -4.3232     1.6834  1517.1483 C.2      468 DC      0.0000
     20 H5'       -8.0593     0.2475  1513.7253 H        468 DC      0.0000
     21 H5''      -6.6212     1.2511  1514.0547 H        468 DC      0.0000
     22 H4'       -6.7869    -1.3954  1514.5095 H        468 DC      0.0000
     23 H3'       -8.3100    -0.4025  1516.6302 H        468 DC      0.0000
     24 H2'       -6.5594     0.4424  1517.8736 H        468 DC      0.0000
     25 H2''      -6.3951    -1.2645  1518.3812 H        468 DC      0.0000
     26 H1'       -4.6553    -1.6687  1516.9202 H        468 DC      0.0000
     27 H5        -3.6032     3.6613  1517.4125 H        468 DC      0.0000
     28 H6        -5.3220     2.0177  1516.9092 H        468 DC      0.0000
     29 H41       -0.1470     2.5741  1518.1671 H        468 DC      0.0000
     30 H42       -1.2086     3.9518  1517.9792 H        468 DC      0.0000
     31 P         -8.8313    -3.1382  1517.3593 P.3      469 DA      0.0000
     32 OP1       -9.3645    -4.3154  1516.5655 O.co2    469 DA      0.0000
     33 OP2       -9.9032    -2.1824  1517.7048 O.co2    469 DA      0.0000
     34 O5'       -7.9347    -3.6093  1518.6563 O.3      469 DA      0.0000
     35 C5'       -6.7169    -4.3596  1518.3610 C.3      469 DA      0.0000
     36 C4'       -5.9552    -4.6331  1519.6163 C.3      469 DA      0.0000
     37 O4'       -4.8497    -3.7578  1519.8585 O.3      469 DA      0.0000
     38 C3'       -6.7589    -4.5091  1520.9216 C.3      469 DA      0.0000
     39 O3'       -6.0672    -5.2190  1521.9515 O.3      469 DA      0.0000
     40 C2'       -6.6526    -2.9861  1521.1362 C.3      469 DA      0.0000
     41 C1'       -5.1342    -2.8897  1520.9529 C.3      469 DA      0.0000
     42 N9        -4.7515    -1.4910  1520.8586 N.ar     469 DA      0.0000
     43 C8        -5.5171    -0.3641  1520.7427 C.ar     469 DA      0.0000
     44 N7        -4.8407     0.7705  1520.7241 N.ar     469 DA      0.0000
     45 C5        -3.5214     0.3538  1520.8317 C.ar     469 DA      0.0000
     46 C6        -2.2997     1.0702  1520.8662 C.ar     469 DA      0.0000
     47 N6        -2.1993     2.3845  1520.7809 N.pl3    469 DA      0.0000
     48 N1        -1.1663     0.3201  1520.9988 N.ar     469 DA      0.0000
     49 C2        -1.2239    -1.0458  1521.0789 C.ar     469 DA      0.0000
     50 N3        -2.3289    -1.7871  1521.0491 N.ar     469 DA      0.0000
     51 C4        -3.4440    -1.0262  1520.9261 C.ar     469 DA      0.0000
     52 H5'       -6.9837    -5.3056  1517.8899 H        469 DA      0.0000
     53 H5''      -6.0931    -3.7809  1517.6797 H        469 DA      0.0000
     54 H4'       -5.5688    -5.6506  1519.5574 H        469 DA      0.0000
     55 H3'       -7.7906    -4.8421  1520.8079 H        469 DA      0.0000
     56 H2'       -7.2019    -2.4181  1520.3854 H        469 DA      0.0000
     57 H2''      -6.9507    -2.7042  1522.1460 H        469 DA      0.0000
     58 H1'       -4.6624    -3.3067  1521.8425 H        469 DA      0.0000
     59 H8        -6.5942    -0.3988  1520.6717 H        469 DA      0.0000
     60 H2        -0.2849    -1.5705  1521.1754 H        469 DA      0.0000
     61 H61       -1.4582     3.0467  1520.9610 H        469 DA      0.0000
     62 H62       -3.0522     2.8245  1520.4662 H        469 DA      0.0000
     63 P         -6.1842    -6.8087  1522.0919 P.3      470 DC      0.0000
     64 OP1       -6.6605    -7.4750  1520.8468 O.co2    470 DC      0.0000
     65 OP2       -7.1466    -6.9561  1523.2348 O.co2    470 DC      0.0000
     66 O5'       -4.6907    -7.2604  1522.3751 O.3      470 DC      0.0000
     67 C5'       -3.7326    -7.4327  1521.2874 C.3      470 DC      0.0000
     68 C4'       -2.4080    -7.1194  1521.9924 C.3      470 DC      0.0000
     69 O4'       -2.4127    -5.7456  1522.3043 O.3      470 DC      0.0000
     70 C3'       -2.2132    -7.8785  1523.3023 C.3      470 DC      0.0000
     71 O3'       -0.9440    -8.5673  1523.3701 O.3      470 DC      0.0000
     72 C2'       -2.3781    -6.8008  1524.3845 C.3      470 DC      0.0000
     73 C1'       -1.8775    -5.5894  1523.7083 C.3      470 DC      0.0000
     74 N1        -2.3701    -4.2604  1524.0611 N.am     470 DC      0.0000
     75 C2        -1.4131    -3.2477  1524.0342 C.2      470 DC      0.0000
     76 O2        -0.2258    -3.4650  1523.8273 O.2      470 DC      0.0000
     77 N3        -1.8371    -1.9805  1524.2873 N.2      470 DC      0.0000
     78 C4        -3.1379    -1.6813  1524.5207 C.2      470 DC      0.0000
     79 N4        -3.4303    -0.4028  1524.7516 N.pl3    470 DC      0.0000
     80 C5        -4.1073    -2.7216  1524.5273 C.2      470 DC      0.0000
     81 C6        -3.6815    -3.9696  1524.2778 C.2      470 DC      0.0000
     82 H5'       -3.7469    -8.4524  1520.9026 H        470 DC      0.0000
     83 H5''      -3.9232    -6.7162  1520.4884 H        470 DC      0.0000
     84 H4'       -1.5782    -7.3364  1521.3197 H        470 DC      0.0000
     85 H3'       -3.0155    -8.6087  1523.4081 H        470 DC      0.0000
     86 H2'       -3.4236    -6.6879  1524.6715 H        470 DC      0.0000
     87 H2''      -1.7650    -7.0349  1525.2547 H        470 DC      0.0000
     88 H1'       -0.7876    -5.5925  1523.6950 H        470 DC      0.0000
     89 H5        -5.1486    -2.5149  1524.7258 H        470 DC      0.0000
     90 H6        -4.4049    -4.7710  1524.2481 H        470 DC      0.0000
     91 H41       -2.6980     0.2927  1524.7406 H        470 DC      0.0000
     92 H42       -4.3845    -0.1287  1524.9378 H        470 DC      0.0000
     93 P          2.2648     8.1803  1526.3297 P.3      470 DG      0.0000
     94 OP1        2.5961     9.6278  1526.5084 O.co2    470 DG      0.0000
     95 OP2        1.2241     7.9362  1525.2448 O.co2    470 DG      0.0000
     96 O5'        3.6550     7.3238  1526.1224 O.3      470 DG      0.0000
     97 C5'        4.1452     6.4819  1527.2182 C.3      470 DG      0.0000
     98 C4'        4.7201     5.2175  1526.5839 C.3      470 DG      0.0000
     99 O4'        3.7644     4.1968  1526.4881 O.3      470 DG      0.0000
    100 C3'        5.2798     5.4146  1525.1776 C.3      470 DG      0.0000
    101 O3'        6.4966     4.6796  1524.9106 O.3      470 DG      0.0000
    102 C2'        4.1257     4.9416  1524.2753 C.3      470 DG      0.0000
    103 C1'        3.5746     3.7897  1525.0991 C.3      470 DG      0.0000
    104 N9         2.1427     3.5797  1524.8258 N.ar     470 DG      0.0000
    105 C8         1.1637     4.5320  1524.6692 C.ar     470 DG      0.0000
    106 N7        -0.0264     4.0390  1524.4507 N.ar     470 DG      0.0000
    107 C5         0.1769     2.6643  1524.4755 C.ar     470 DG      0.0000
    108 C6        -0.7269     1.5798  1524.3191 C.2      470 DG      0.0000
    109 O6        -1.9481     1.6566  1524.1223 O.2      470 DG      0.0000
    110 N1        -0.1427     0.3402  1524.4060 N.am     470 DG      0.0000
    111 C2         1.1839     0.1700  1524.6267 C.2      470 DG      0.0000
    112 N2         1.6069    -1.0896  1524.6900 N.pl3    470 DG      0.0000
    113 N3         2.0766     1.1551  1524.7844 N.2      470 DG      0.0000
    114 C4         1.5027     2.3710  1524.7011 C.ar     470 DG      0.0000
    115 H5'        4.9206     7.0070  1527.7760 H        470 DG      0.0000
    116 H5''       3.3216     6.2218  1527.8831 H        470 DG      0.0000
    117 H4'        5.5297     4.8607  1527.2206 H        470 DG      0.0000
    118 H3'        5.4569     6.4765  1525.0071 H        470 DG      0.0000
    119 H2'        3.3813     5.7249  1524.1326 H        470 DG      0.0000
    120 H2''       4.5037     4.5866  1523.3165 H        470 DG      0.0000
    121 H1'        4.1351     2.8776  1524.8939 H        470 DG      0.0000
    122 H8         1.3606     5.5925  1524.7219 H        470 DG      0.0000
    123 H1        -0.7252    -0.4782  1524.3012 H        470 DG      0.0000
    124 H21        0.9509    -1.8489  1524.5749 H        470 DG      0.0000
    125 H22        2.5839    -1.2866  1524.8532 H        470 DG      0.0000
    126 P          6.7179     4.2346  1523.3871 P.3      469 DT      0.0000
    127 OP1        8.1657     4.1082  1522.9962 O.co2    469 DT      0.0000
    128 OP2        6.0693     5.3703  1522.6866 O.co2    469 DT      0.0000
    129 O5'        5.9870     2.8148  1523.2562 O.3      469 DT      0.0000
    130 C5'        6.8001     1.6277  1523.5239 C.3      469 DT      0.0000
    131 C4'        6.2055     0.4601  1522.7668 C.3      469 DT      0.0000
    132 O4'        4.7895     0.4835  1522.7395 O.3      469 DT      0.0000
    133 C3'        6.6459     0.4064  1521.3121 C.3      469 DT      0.0000
    134 O3'        6.8788    -0.9301  1520.8170 O.3      469 DT      0.0000
    135 C2'        5.5029     1.0838  1520.5892 C.3      469 DT      0.0000
    136 C1'        4.3361     0.4984  1521.3673 C.3      469 DT      0.0000
    137 N1         3.2127     1.4365  1521.2160 N.am     469 DT      0.0000
    138 C2         1.9376     0.8907  1521.3228 C.2      469 DT      0.0000
    139 O2         1.7901    -0.3119  1521.5126 O.2      469 DT      0.0000
    140 N3         0.8797     1.7479  1521.2026 N.am     469 DT      0.0000
    141 C4         1.0537     3.0818  1520.9851 C.2      469 DT      0.0000
    142 O4         0.0059     3.8024  1520.8875 O.2      469 DT      0.0000
    143 C5         2.3715     3.6114  1520.8787 C.2      469 DT      0.0000
    144 C7         2.5754     5.0816  1520.6497 C.3      469 DT      0.0000
    145 C6         3.4010     2.7695  1521.0005 C.2      469 DT      0.0000
    146 H5'        7.8234     1.7998  1523.1901 H        469 DT      0.0000
    147 H5''       6.7944     1.4128  1524.5925 H        469 DT      0.0000
    148 H4'        6.5231    -0.4614  1523.2548 H        469 DT      0.0000
    149 H3'        7.5521     0.9992  1521.1881 H        469 DT      0.0000
    150 H2'        5.5495     2.1689  1520.6808 H        469 DT      0.0000
    151 H2''       5.4669     0.7805  1519.5428 H        469 DT      0.0000
    152 H1'        4.0777    -0.5008  1521.0167 H        469 DT      0.0000
    153 H3        -0.0587     1.3819  1521.2773 H        469 DT      0.0000
    154 H6         4.4075     3.1541  1520.9263 H        469 DT      0.0000
    155 H71        1.6068     5.5769  1520.5810 H        469 DT      0.0000
    156 H72        3.1408     5.5035  1521.4806 H        469 DT      0.0000
    157 H73        3.1269     5.2318  1519.7216 H        469 DT      0.0000
    158 P          8.3446    -0.9141  1520.0386 P.3      468 DG      0.0000
    159 OP1        9.4842    -1.3317  1520.9098 O.co2    468 DG      0.0000
    160 OP2        8.3615     0.5136  1519.6330 O.co2    468 DG      0.0000
    161 O5'        8.1125    -2.0685  1518.9578 O.3      468 DG      0.0000
    162 C5'        8.2071    -3.4522  1519.3813 C.3      468 DG      0.0000
    163 C4'        6.8964    -4.0869  1518.9335 C.3      468 DG      0.0000
    164 O4'        5.8250    -3.2055  1519.2042 O.3      468 DG      0.0000
    165 C3'        6.8399    -4.4339  1517.4458 C.3      468 DG      0.0000
    166 O3'        6.5447    -5.8034  1517.2373 O.3      468 DG      0.0000
    167 C2'        5.8345    -3.4531  1516.8691 C.3      468 DG      0.0000
    168 C1'        4.9519    -3.1439  1518.0552 C.3      468 DG      0.0000
    169 N9         4.3569    -1.8104  1517.9317 N.ar     468 DG      0.0000
    170 C8         4.9903    -0.6105  1517.7728 C.ar     468 DG      0.0000
    171 N7         4.1731     0.4113  1517.6947 N.ar     468 DG      0.0000
    172 C5         2.9093    -0.1553  1517.8322 C.ar     468 DG      0.0000
    173 C6         1.6103     0.4179  1517.8417 C.2      468 DG      0.0000
    174 O6         1.3246     1.6069  1517.7427 O.2      468 DG      0.0000
    175 N1         0.5932    -0.4817  1517.9907 N.am     468 DG      0.0000
    176 C2         0.8242    -1.8295  1518.1236 C.2      468 DG      0.0000
    177 N2        -0.2588    -2.5954  1518.2592 N.pl3    468 DG      0.0000
    178 N3         2.0175    -2.4321  1518.1279 N.2      468 DG      0.0000
    179 C4         3.0154    -1.5282  1517.9772 C.ar     468 DG      0.0000
    180 H5'        9.0544    -3.9431  1518.9025 H        468 DG      0.0000
    181 H5''       8.3022    -3.5089  1520.4656 H        468 DG      0.0000
    182 H4'        6.7432    -5.0014  1519.5065 H        468 DG      0.0000
    183 H3'        7.8151    -4.2228  1517.0072 H        468 DG      0.0000
    184 H2'        6.3292    -2.5536  1516.5027 H        468 DG      0.0000
    185 H2''       5.2555    -3.9222  1516.0735 H        468 DG      0.0000
    186 H1'        4.1674    -3.8956  1518.1422 H        468 DG      0.0000
    187 H8         6.0645    -0.5128  1517.7167 H        468 DG      0.0000
    188 H1        -0.3590    -0.1453  1518.0035 H        468 DG      0.0000
    189 H21       -1.1774    -2.1755  1518.2602 H        468 DG      0.0000
    190 H22       -0.1606    -3.5953  1518.3610 H        468 DG      0.0000
    191 P          0.9212    -9.9766  1528.3712 P.3      471 DG      0.0000
    192 OP1        0.3387   -11.3412  1528.3697 O.co2    471 DG      0.0000
    193 OP2        0.1531    -9.1681  1529.4269 O.co2    471 DG      0.0000
    194 O5'        2.4986    -9.8687  1528.5496 O.3      471 DG      0.0000
    195 C5'        3.5116    -9.6295  1527.5496 C.3      471 DG      0.0000
    196 C4'        4.4137    -8.5199  1528.0484 C.3      471 DG      0.0000
    197 O4'        3.9709    -7.2472  1527.6293 O.3      471 DG      0.0000
    198 C3'        4.6590    -8.4228  1529.5406 C.3      471 DG      0.0000
    199 O3'        6.0782    -8.4248  1529.8526 O.3      471 DG      0.0000
    200 C2'        3.9533    -7.1481  1529.9625 C.3      471 DG      0.0000
    201 C1'        3.9551    -6.3101  1528.7068 C.3      471 DG      0.0000
    202 N9         2.7648    -5.4409  1528.6778 N.ar     471 DG      0.0000
    203 C8         1.4469    -5.7589  1528.9067 C.ar     471 DG      0.0000
    204 N7         0.6250    -4.7377  1528.8170 N.ar     471 DG      0.0000
    205 C5         1.4589    -3.6685  1528.4999 C.ar     471 DG      0.0000
    206 C6         1.1893    -2.2961  1528.2740 C.2      471 DG      0.0000
    207 O6         0.1016    -1.7193  1528.2953 O.2      471 DG      0.0000
    208 N1         2.2845    -1.5262  1527.9925 N.am     471 DG      0.0000
    209 C2         3.4865    -2.0034  1527.9319 C.2      471 DG      0.0000
    210 N2         4.3179    -1.0816  1527.6351 N.pl3    471 DG      0.0000
    211 N3         3.8525    -3.3369  1528.1406 N.2      471 DG      0.0000
    212 C4         2.7740    -4.0853  1528.4132 C.ar     471 DG      0.0000
    213 H5'        4.0952   -10.5364  1527.3909 H        471 DG      0.0000
    214 H5''       3.0405    -9.3275  1526.6142 H        471 DG      0.0000
    215 H4'        5.3868    -8.6786  1527.5837 H        471 DG      0.0000
    216 H3'        4.1854    -9.2713  1530.0346 H        471 DG      0.0000
    217 H2'        2.9348    -7.3570  1530.2895 H        471 DG      0.0000
    218 H2''       4.5118    -6.6483  1530.7540 H        471 DG      0.0000
    219 H1'        4.8569    -5.6987  1528.6749 H        471 DG      0.0000
    220 H8         1.1162    -6.7603  1529.1397 H        471 DG      0.0000
    221 H1         2.1491    -0.5396  1527.8241 H        471 DG      0.0000
    222 H21        3.9934    -0.1361  1527.4907 H        471 DG      0.0000
    223 H22        5.3004    -1.2976  1527.5446 H        471 DG      0.0000
    224 P          6.6377    -8.0523  1531.2811 P.3      472 DT      0.0000
    225 OP1        7.7771    -8.8952  1531.7928 O.co2    472 DT      0.0000
    226 OP2        5.4518    -8.3985  1532.1998 O.co2    472 DT      0.0000
    227 O5'        6.8726    -6.5204  1531.3097 O.3      472 DT      0.0000
    228 C5'        8.1870    -5.9153  1531.1657 C.3      472 DT      0.0000
    229 C4'        7.9292    -4.4242  1531.2232 C.3      472 DT      0.0000
    230 O4'        6.5828    -4.1050  1530.9481 O.3      472 DT      0.0000
    231 C3'        8.2227    -3.7430  1532.5360 C.3      472 DT      0.0000
    232 O3'        9.3088    -2.8239  1532.3477 O.3      472 DT      0.0000
    233 C2'        6.9352    -3.0186  1532.9282 C.3      472 DT      0.0000
    234 C1'        6.3025    -2.8198  1531.5754 C.3      472 DT      0.0000
    235 N1         4.8485    -2.6889  1531.6721 N.am     472 DT      0.0000
    236 C2         4.3130    -1.4451  1531.4741 C.2      472 DT      0.0000
    237 O2         5.0061    -0.4586  1531.2360 O.2      472 DT      0.0000
    238 N3         2.9512    -1.3325  1531.5552 N.am     472 DT      0.0000
    239 C4         2.1406    -2.3842  1531.8111 C.2      472 DT      0.0000
    240 O4         0.9094    -2.1259  1531.8564 O.2      472 DT      0.0000
    241 C5         2.7189    -3.6789  1532.0108 C.2      472 DT      0.0000
    242 C7         1.8581    -4.8677  1532.2907 C.3      472 DT      0.0000
    243 C6         4.0517    -3.7797  1531.9293 C.2      472 DT      0.0000
    244 H5'        8.8437    -6.2239  1531.9792 H        472 DT      0.0000
    245 H5''       8.6239    -6.1861  1530.2045 H        472 DT      0.0000
    246 H4'        8.5453    -3.9511  1530.4587 H        472 DT      0.0000
    247 H3'        8.4833    -4.4826  1533.2931 H        472 DT      0.0000
    248 H2'        6.3108    -3.6329  1533.5770 H        472 DT      0.0000
    249 H2''       7.1569    -2.0601  1533.3974 H        472 DT      0.0000
    250 H1'        6.7532    -1.9906  1531.0301 H        472 DT      0.0000
    251 H3         2.5332    -0.4234  1531.4177 H        472 DT      0.0000
    252 H6         4.5142    -4.7456  1532.0697 H        472 DT      0.0000
    253 H71        1.7586    -5.4662  1531.3852 H        472 DT      0.0000
    254 H72        0.8726    -4.5340  1532.6155 H        472 DT      0.0000
    255 H73        2.3148    -5.4701  1533.0760 H        472 DT      0.0000
    256 P         10.3100    -2.7510  1533.6277 P.3      473 DG      0.0000
    257 OP1       11.6437    -2.5755  1532.9126 O.co2    473 DG      0.0000
    258 OP2       10.2014    -3.9873  1534.3812 O.co2    473 DG      0.0000
    259 O5'        9.6951    -1.3673  1534.2372 O.3      473 DG      0.0000
    260 C5'        9.5269    -0.3846  1533.1466 C.3      473 DG      0.0000
    261 C4'        8.6663     0.7289  1533.6667 C.3      473 DG      0.0000
    262 O4'        7.2825     0.5879  1533.4861 O.3      473 DG      0.0000
    263 C3'        8.8927     0.9973  1535.1747 C.3      473 DG      0.0000
    264 O3'        9.2139     2.4004  1535.3336 O.3      473 DG      0.0000
    265 C2'        7.6122     0.5217  1535.8273 C.3      473 DG      0.0000
    266 C1'        6.5816     0.8240  1534.7457 C.3      473 DG      0.0000
    267 N9         5.3743     0.0078  1534.9152 N.ar     473 DG      0.0000
    268 C8         5.2755    -1.3141  1535.2515 C.ar     473 DG      0.0000
    269 N7         4.0442    -1.7674  1535.3372 N.ar     473 DG      0.0000
    270 C5         3.2777    -0.6520  1535.0072 C.ar     473 DG      0.0000
    271 C6         1.8662    -0.4867  1534.9128 C.2      473 DG      0.0000
    272 O6         0.9811    -1.3336  1535.1052 O.2      473 DG      0.0000
    273 N1         1.4639     0.7860  1534.5778 N.am     473 DG      0.0000
    274 C2         2.3574     1.7887  1534.3540 C.2      473 DG      0.0000
    275 N2         1.7867     2.9604  1534.0452 N.pl3    473 DG      0.0000
    276 N3         3.6824     1.6835  1534.4251 N.2      473 DG      0.0000
    277 C4         4.0776     0.4411  1534.7516 C.ar     473 DG      0.0000
    278 H5'       10.4989     0.0066  1532.8461 H        473 DG      0.0000
    279 H5''       9.0408    -0.8591  1532.2942 H        473 DG      0.0000
    280 H4'        8.9641     1.6333  1533.1361 H        473 DG      0.0000
    281 H3'        9.7269     0.3920  1535.5295 H        473 DG      0.0000
    282 H2'        7.6525    -0.5444  1536.0502 H        473 DG      0.0000
    283 H2''       7.4033     1.0963  1536.7297 H        473 DG      0.0000
    284 H1'        6.3068     1.8772  1534.8047 H        473 DG      0.0000
    285 H8         6.1398    -1.9362  1535.4321 H        473 DG      0.0000
    286 H1         0.4765     0.9821  1534.4955 H        473 DG      0.0000
    287 H21        0.7806     3.0345  1533.9950 H        473 DG      0.0000
    288 H22        2.3623     3.7700  1533.8625 H        473 DG      0.0000
    289 P          9.6160     2.9957  1536.7220 P.3      474 DA      0.0000
    290 OP1       11.0670     2.9584  1537.0773 O.co2    474 DA      0.0000
    291 OP2        8.8811     1.9320  1537.6177 O.co2    474 DA      0.0000
    292 O5'        8.8009     4.3330  1536.9711 O.3      474 DA      0.0000
    293 C5'        8.2274     5.1526  1535.9420 C.3      474 DA      0.0000
    294 C4'        6.8169     5.4630  1536.4164 C.3      474 DA      0.0000
    295 O4'        6.0036     4.3128  1536.3260 O.3      474 DA      0.0000
    296 C3'        6.6842     5.9896  1537.8454 C.3      474 DA      0.0000
    297 O3'        5.8224     7.1453  1537.8977 O.3      474 DA      0.0000
    298 C2'        6.1036     4.7756  1538.5809 C.3      474 DA      0.0000
    299 C1'        5.1565     4.2698  1537.5033 C.3      474 DA      0.0000
    300 N9         4.6770     2.9030  1537.7317 N.ar     474 DA      0.0000
    301 C8         5.3786     1.7509  1537.9474 C.ar     474 DA      0.0000
    302 N7         4.6216     0.6890  1538.1124 N.ar     474 DA      0.0000
    303 C5         3.3306     1.1760  1537.9722 C.ar     474 DA      0.0000
    304 C6         2.0763     0.5293  1538.0202 C.ar     474 DA      0.0000
    305 N6         1.9082    -0.7768  1538.2399 N.pl3    474 DA      0.0000
    306 N1         0.9944     1.3418  1537.8304 N.ar     474 DA      0.0000
    307 C2         1.1423     2.6691  1537.6126 C.ar     474 DA      0.0000
    308 N3         2.2890     3.3452  1537.5544 N.ar     474 DA      0.0000
    309 C4         3.3429     2.5299  1537.7412 C.ar     474 DA      0.0000
    310 H5'        8.2016     4.6138  1534.9949 H        474 DA      0.0000
    311 H5''       8.7987     6.0746  1535.8343 H        474 DA      0.0000
    312 H4'        6.4008     6.2156  1535.7466 H        474 DA      0.0000
    313 H3'        7.6671     6.2363  1538.2468 H        474 DA      0.0000
    314 H2'        6.8713     4.0418  1538.8263 H        474 DA      0.0000
    315 H2''       5.5556     5.0823  1539.4718 H        474 DA      0.0000
    316 H1'        4.3143     4.9522  1537.3887 H        474 DA      0.0000
    317 H8         6.4575     1.7157  1537.9795 H        474 DA      0.0000
    318 H2         0.2364     3.2400  1537.4713 H        474 DA      0.0000
    319 H61        2.6290    -1.4776  1538.1425 H        474 DA      0.0000
    320 H62        0.9974    -1.1783  1538.0684 H        474 DA      0.0000
    321 P          5.9887     8.3147  1539.0391 P.3      475 DA      0.0000
    322 OP1        6.3046     9.6303  1538.3721 O.co2    475 DA      0.0000
    323 OP2        7.0714     7.7498  1539.8701 O.co2    475 DA      0.0000
    324 O5'        4.4948     8.4923  1539.5700 O.3      475 DA      0.0000
    325 C5'        3.4093     8.9136  1538.7456 C.3      475 DA      0.0000
    326 C4'        2.1401     8.2636  1539.2680 C.3      475 DA      0.0000
    327 O4'        2.2584     6.8692  1539.2961 O.3      475 DA      0.0000
    328 C3'        1.6422     8.6990  1540.6353 C.3      475 DA      0.0000
    329 O3'        0.3680     9.3377  1540.5574 O.3      475 DA      0.0000
    330 C2'        1.6753     7.4089  1541.4640 C.3      475 DA      0.0000
    331 C1'        1.5792     6.3173  1540.4702 C.3      475 DA      0.0000
    332 N9         2.2003     5.0075  1540.7383 N.ar     475 DA      0.0000
    333 C8         3.5258     4.6653  1540.8534 C.ar     475 DA      0.0000
    334 N7         3.7360     3.3814  1541.0227 N.ar     475 DA      0.0000
    335 C5         2.4598     2.8288  1540.9857 C.ar     475 DA      0.0000
    336 C6         2.0052     1.4847  1541.1062 C.ar     475 DA      0.0000
    337 N6         2.7795     0.4240  1541.2978 N.pl3    475 DA      0.0000
    338 N1         0.6479     1.3069  1541.0080 N.ar     475 DA      0.0000
    339 C2        -0.1809     2.3744  1540.8189 C.ar     475 DA      0.0000
    340 N3         0.1757     3.6493  1540.7111 N.ar     475 DA      0.0000
    341 C4         1.5113     3.8083  1540.8029 C.ar     475 DA      0.0000
    342 H5'        3.5859     8.6038  1537.7156 H        475 DA      0.0000
    343 H5''       3.3124     9.9983  1538.7916 H        475 DA      0.0000
    344 H4'        1.3495     8.4984  1538.5552 H        475 DA      0.0000
    345 H3'        2.3589     9.4028  1541.0585 H        475 DA      0.0000
    346 H2'        2.6075     7.3367  1542.0243 H        475 DA      0.0000
    347 H2''       0.8238     7.3758  1542.1436 H        475 DA      0.0000
    348 H1'        0.5289     6.1613  1540.2241 H        475 DA      0.0000
    349 H8         4.3253     5.3901  1540.8086 H        475 DA      0.0000
    350 H2        -1.2372     2.1602  1540.7498 H        475 DA      0.0000
    351 H61        3.7321     0.5039  1541.6240 H        475 DA      0.0000
    352 H62        2.4034    -0.4946  1541.1110 H        475 DA      0.0000
    353 P         -0.1414    10.5503  1541.5137 P.3      476 DT      0.0000
    354 OP1       -0.8823    11.6178  1540.7163 O.co2    476 DT      0.0000
    355 OP2        0.9440    11.0452  1542.3343 O.co2    476 DT      0.0000
    356 O5'       -1.3767     9.8312  1542.3274 O.3      476 DT      0.0000
    357 C5'       -2.1457     8.9709  1541.3823 C.3      476 DT      0.0000
    358 C4'       -2.4365     7.7188  1542.1700 C.3      476 DT      0.0000
    359 O4'       -1.3081     6.8956  1542.3620 O.3      476 DT      0.0000
    360 C3'       -2.9542     8.0294  1543.5866 C.3      476 DT      0.0000
    361 O3'       -4.3674     7.9465  1543.5882 O.3      476 DT      0.0000
    362 C2'       -2.2507     7.0142  1544.4838 C.3      476 DT      0.0000
    363 C1'       -1.7055     6.0383  1543.5192 C.3      476 DT      0.0000
    364 N1        -0.5437     5.2323  1543.8590 N.am     476 DT      0.0000
    365 C2        -0.7475     3.8628  1543.9969 C.2      476 DT      0.0000
    366 O2        -1.8791     3.4039  1543.9089 O.2      476 DT      0.0000
    367 N3         0.3331     3.0733  1544.2509 N.am     476 DT      0.0000
    368 C4         1.5988     3.5715  1544.3710 C.2      476 DT      0.0000
    369 O4         2.5540     2.7705  1544.6262 O.2      476 DT      0.0000
    370 C5         1.7877     4.9825  1544.1995 C.2      476 DT      0.0000
    371 C7         3.1649     5.5796  1544.2870 C.3      476 DT      0.0000
    372 C6         0.7189     5.7564  1543.9437 C.2      476 DT      0.0000
    373 H5'       -3.0715     9.4609  1541.0806 H        476 DT      0.0000
    374 H5''      -1.5401     8.7351  1540.5072 H        476 DT      0.0000
    375 H4'       -3.1978     7.1455  1541.6409 H        476 DT      0.0000
    376 H3'       -2.6499     9.0367  1543.8709 H        476 DT      0.0000
    377 H2'       -1.4525     7.4856  1545.0572 H        476 DT      0.0000
    378 H2''      -2.9666     6.5331  1545.1502 H        476 DT      0.0000
    379 H1'       -2.5098     5.3747  1543.2019 H        476 DT      0.0000
    380 H3         0.1924     2.0785  1544.3546 H        476 DT      0.0000
    381 H6         0.8591     6.8178  1543.8015 H        476 DT      0.0000
    382 H71        3.8894     4.7936  1544.5000 H        476 DT      0.0000
    383 H72        3.4147     6.0565  1543.3392 H        476 DT      0.0000
    384 H73        3.1890     6.3219  1545.0848 H        476 DT      0.0000
    385 P         -5.3703     8.3700  1544.6949 P.3      477 DT      0.0000
    386 OP1       -6.7704     8.6336  1544.0828 O.co2    477 DT      0.0000
    387 OP2       -4.8049     9.5909  1545.3248 O.co2    477 DT      0.0000
    388 O5'       -5.5768     7.0468  1545.5772 O.3      477 DT      0.0000
    389 C5'       -6.3127     6.0160  1544.8654 C.3      477 DT      0.0000
    390 C4'       -6.0796     4.7096  1545.5416 C.3      477 DT      0.0000
    391 O4'       -4.7225     4.2849  1545.5183 O.3      477 DT      0.0000
    392 C3'       -6.5320     4.6650  1547.0082 C.3      477 DT      0.0000
    393 O3'       -7.2152     3.4544  1547.2723 O.3      477 DT      0.0000
    394 C2'       -5.1712     4.6696  1547.7445 C.3      477 DT      0.0000
    395 C1'       -4.4533     3.6879  1546.8410 C.3      477 DT      0.0000
    396 N1        -3.0335     3.6458  1547.1387 N.am     477 DT      0.0000
    397 C2        -2.4060     2.4118  1547.1935 C.2      477 DT      0.0000
    398 O2        -3.0743     1.3943  1547.0051 O.2      477 DT      0.0000
    399 N3        -1.0661     2.3794  1547.4594 N.am     477 DT      0.0000
    400 C4        -0.3398     3.5118  1547.6664 C.2      477 DT      0.0000
    401 O4         0.9000     3.4047  1547.8897 O.2      477 DT      0.0000
    402 C5        -0.9950     4.7760  1547.6014 C.2      477 DT      0.0000
    403 C7        -0.2622     6.0690  1547.8113 C.3      477 DT      0.0000
    404 C6        -2.3114     4.7895  1547.3402 C.2      477 DT      0.0000
    405 H5'       -7.3771     6.2505  1544.8779 H        477 DT      0.0000
    406 H5''      -5.9622     5.9619  1543.8347 H        477 DT      0.0000
    407 H4'       -6.6603     3.9607  1545.0031 H        477 DT      0.0000
    408 H3'       -7.1354     5.5340  1547.2707 H        477 DT      0.0000
    409 H2'       -4.7023     5.6535  1547.7433 H        477 DT      0.0000
    410 H2''      -5.2676     4.2782  1548.7573 H        477 DT      0.0000
    411 H1'       -4.8959     2.6947  1546.9166 H        477 DT      0.0000
    412 H3        -0.5989     1.4850  1547.5038 H        477 DT      0.0000
    413 H6        -2.8202     5.7406  1547.2872 H        477 DT      0.0000
    414 H71        0.7895     5.8631  1548.0102 H        477 DT      0.0000
    415 H72       -0.3486     6.6847  1546.9160 H        477 DT      0.0000
    416 H73       -0.6955     6.5986  1548.6597 H        477 DT      0.0000
    417 P         -8.6026     3.0438  1547.8802 P.3      478 DC      0.0000
    418 OP1       -9.5396     2.5130  1546.8123 O.co2    478 DC      0.0000
    419 OP2       -9.0733     4.2320  1548.6152 O.co2    478 DC      0.0000
    420 O5'       -8.0617     1.7456  1548.7062 O.3      478 DC      0.0000
    421 C5'       -7.3445     0.9608  1547.6840 C.3      478 DC      0.0000
    422 C4'       -6.7473    -0.2287  1548.3805 C.3      478 DC      0.0000
    423 O4'       -5.3837    -0.0775  1548.6274 O.3      478 DC      0.0000
    424 C3'       -7.4452    -0.6402  1549.6719 C.3      478 DC      0.0000
    425 O3'       -7.8712    -1.9940  1549.5923 O.3      478 DC      0.0000
    426 C2'       -6.3933    -0.2723  1550.7207 C.3      478 DC      0.0000
    427 C1'       -5.0990    -0.4224  1550.0243 C.3      478 DC      0.0000
    428 N1        -4.0462     0.5426  1550.3564 N.am     478 DC      0.0000
    429 C2        -2.7867     0.0050  1550.6122 C.2      478 DC      0.0000
    430 O2        -2.5976    -1.2153  1550.6167 O.2      478 DC      0.0000
    431 N3        -1.7676     0.8834  1550.8860 N.2      478 DC      0.0000
    432 C4        -1.9684     2.2325  1550.8761 C.2      478 DC      0.0000
    433 N4        -0.9199     2.9999  1551.1530 N.pl3    478 DC      0.0000
    434 C5        -3.2470     2.7637  1550.5981 C.2      478 DC      0.0000
    435 C6        -4.2380     1.8877  1550.3333 C.2      478 DC      0.0000
    436 H5'       -8.0383     0.6317  1546.9103 H        478 DC      0.0000
    437 H5''      -6.5540     1.5655  1547.2398 H        478 DC      0.0000
    438 H4'       -6.8457    -1.0700  1547.6945 H        478 DC      0.0000
    439 H3'       -8.3197    -0.0056  1549.8152 H        478 DC      0.0000
    440 H2'       -6.5308     0.7548  1551.0586 H        478 DC      0.0000
    441 H2''      -6.4482    -0.9580  1551.5662 H        478 DC      0.0000
    442 H1'       -4.7296    -1.4447  1550.1052 H        478 DC      0.0000
    443 H5        -3.4244     3.8290  1550.5975 H        478 DC      0.0000
    444 H6        -5.2197     2.2693  1550.0943 H        478 DC      0.0000
    445 H41       -0.0240     2.5782  1551.3522 H        478 DC      0.0000
    446 H42       -1.0187     4.0049  1551.1643 H        478 DC      0.0000
    447 P         -8.9710    -2.7133  1550.5443 P.3      479 DA      0.0000
    448 OP1       -9.5597    -3.8637  1549.7506 O.co2    479 DA      0.0000
    449 OP2       -9.9960    -1.7074  1550.8898 O.co2    479 DA      0.0000
    450 O5'       -8.0978    -3.2266  1551.8413 O.3      479 DA      0.0000
    451 C5'       -6.9173    -4.0342  1551.5461 C.3      479 DA      0.0000
    452 C4'       -6.1695    -4.3437  1552.8014 C.3      479 DA      0.0000
    453 O4'       -5.0234    -3.5221  1553.0435 O.3      479 DA      0.0000
    454 C3'       -6.9664    -4.1815  1554.1066 C.3      479 DA      0.0000
    455 O3'       -6.3093    -4.9236  1555.1365 O.3      479 DA      0.0000
    456 C2'       -6.7875    -2.6653  1554.3212 C.3      479 DA      0.0000
    457 C1'       -5.2663    -2.6414  1554.1379 C.3      479 DA      0.0000
    458 N9        -4.8172    -1.2627  1554.0436 N.ar     479 DA      0.0000
    459 C8        -5.5282    -0.1004  1553.9278 C.ar     479 DA      0.0000
    460 N7        -4.7985     1.0006  1553.9092 N.ar     479 DA      0.0000
    461 C5        -3.5005     0.5214  1554.0167 C.ar     479 DA      0.0000
    462 C6        -2.2460     1.1787  1554.0512 C.ar     479 DA      0.0000
    463 N6        -2.0831     2.4867  1553.9660 N.pl3    479 DA      0.0000
    464 N1        -1.1497     0.3754  1554.1838 N.ar     479 DA      0.0000
    465 C2        -1.2724    -0.9862  1554.2640 C.ar     479 DA      0.0000
    466 N3        -2.4115    -1.6740  1554.2341 N.ar     479 DA      0.0000
    467 C4        -3.4891    -0.8607  1554.1111 C.ar     479 DA      0.0000
    468 H5'       -7.2288    -4.9664  1551.0749 H        479 DA      0.0000
    469 H5''      -6.2666    -3.4859  1550.8648 H        479 DA      0.0000
    470 H4'       -5.8321    -5.3785  1552.7425 H        479 DA      0.0000
    471 H3'       -8.0127    -4.4649  1553.9929 H        479 DA      0.0000
    472 H2'       -7.3090    -2.0717  1553.5704 H        479 DA      0.0000
    473 H2''      -7.0718    -2.3695  1555.3311 H        479 DA      0.0000
    474 H1'       -4.8148    -3.0805  1555.0276 H        479 DA      0.0000
    475 H8        -6.6058    -0.0838  1553.8568 H        479 DA      0.0000
    476 H2        -0.3595    -1.5551  1554.3604 H        479 DA      0.0000
    477 H61       -1.3112     3.1128  1554.1460 H        479 DA      0.0000
    478 H62       -2.9140     2.9669  1553.6512 H        479 DA      0.0000
    479 P         -6.5020    -6.5059  1555.2770 P.3      480 DC      0.0000
    480 OP1       -7.0095    -7.1487  1554.0319 O.co2    480 DC      0.0000
    481 OP2       -7.4703    -6.6073  1556.4199 O.co2    480 DC      0.0000
    482 O5'       -5.0318    -7.0283  1555.5602 O.3      480 DC      0.0000
    483 C5'       -4.0830    -7.2462  1554.4724 C.3      480 DC      0.0000
    484 C4'       -2.7449    -6.9964  1555.1774 C.3      480 DC      0.0000
    485 O4'       -2.6841    -5.6240  1555.4894 O.3      480 DC      0.0000
    486 C3'       -2.5865    -7.7640  1556.4873 C.3      480 DC      0.0000
    487 O3'       -1.3517    -8.5125  1556.5552 O.3      480 DC      0.0000
    488 C2'       -2.6999    -6.6796  1557.5695 C.3      480 DC      0.0000
    489 C1'       -2.1420    -5.4935  1556.8933 C.3      480 DC      0.0000
    490 N1        -2.5707    -4.1425  1557.2461 N.am     480 DC      0.0000
    491 C2        -1.5664    -3.1766  1557.2193 C.2      480 DC      0.0000
    492 O2        -0.3909    -3.4503  1557.0123 O.2      480 DC      0.0000
    493 N3        -1.9295    -1.8906  1557.4724 N.2      480 DC      0.0000
    494 C4        -3.2145    -1.5296  1557.7057 C.2      480 DC      0.0000
    495 N4        -3.4456    -0.2386  1557.9367 N.pl3    480 DC      0.0000
    496 C5        -4.2325    -2.5226  1557.7123 C.2      480 DC      0.0000
    497 C6        -3.8667    -3.7895  1557.4629 C.2      480 DC      0.0000
    498 H5'       -4.1459    -8.2640  1554.0876 H        480 DC      0.0000
    499 H5''      -4.2392    -6.5214  1553.6734 H        480 DC      0.0000
    500 H4'       -1.9265    -7.2528  1554.5047 H        480 DC      0.0000
    501 H3'       -3.4228    -8.4550  1556.5932 H        480 DC      0.0000
    502 H2'       -3.7388    -6.5169  1557.8565 H        480 DC      0.0000
    503 H2''      -2.0986    -6.9426  1558.4398 H        480 DC      0.0000
    504 H1'       -1.0535    -5.5485  1556.8801 H        480 DC      0.0000
    505 H5        -5.2627    -2.2663  1557.9108 H        480 DC      0.0000
    506 H6        -4.6275    -4.5554  1557.4331 H        480 DC      0.0000
    507 H41       -2.6810     0.4211  1557.9256 H        480 DC      0.0000
    508 H42       -4.3856     0.0807  1558.1228 H        480 DC      0.0000
    509 P          2.6525     8.0629  1559.5147 P.3      480 DG      0.0000
    510 OP1        3.0525     9.4929  1559.6935 O.co2    480 DG      0.0000
    511 OP2        1.6013     7.8688  1558.4299 O.co2    480 DG      0.0000
    512 O5'        4.0003     7.1411  1559.3075 O.3      480 DG      0.0000
    513 C5'        4.4498     6.2767  1560.4032 C.3      480 DG      0.0000
    514 C4'        4.9636     4.9863  1559.7690 C.3      480 DG      0.0000
    515 O4'        3.9603     4.0124  1559.6731 O.3      480 DG      0.0000
    516 C3'        5.5321     5.1565  1558.3626 C.3      480 DG      0.0000
    517 O3'        6.7124     4.3643  1558.0956 O.3      480 DG      0.0000
    518 C2'        4.3568     4.7392  1557.4603 C.3      480 DG      0.0000
    519 C1'        3.7514     3.6148  1558.2842 C.3      480 DG      0.0000
    520 N9         2.3110     3.4734  1558.0108 N.ar     480 DG      0.0000
    521 C8         1.3786     4.4713  1557.8542 C.ar     480 DG      0.0000
    522 N7         0.1663     4.0357  1557.6358 N.ar     480 DG      0.0000
    523 C5         0.3038     2.6528  1557.6606 C.ar     480 DG      0.0000
    524 C6        -0.6507     1.6126  1557.5041 C.2      480 DG      0.0000
    525 O6        -1.8668     1.7476  1557.3073 O.2      480 DG      0.0000
    526 N1        -0.1263     0.3466  1557.5910 N.am     480 DG      0.0000
    527 C2         1.1907     0.1133  1557.8117 C.2      480 DG      0.0000
    528 N2         1.5530    -1.1650  1557.8750 N.pl3    480 DG      0.0000
    529 N3         2.1293     1.0547  1557.9694 N.2      480 DG      0.0000
    530 C4         1.6141     2.2966  1557.8861 C.ar     480 DG      0.0000
    531 H5'        5.2493     6.7642  1560.9610 H        480 DG      0.0000
    532 H5''       3.6147     6.0562  1561.0682 H        480 DG      0.0000
    533 H4'        5.7553     4.5913  1560.4057 H        480 DG      0.0000
    534 H3'        5.7597     6.2088  1558.1921 H        480 DG      0.0000
    535 H2'        3.6506     5.5570  1557.3177 H        480 DG      0.0000
    536 H2''       4.7174     4.3665  1556.5016 H        480 DG      0.0000
    537 H1'        4.2677     2.6770  1558.0789 H        480 DG      0.0000
    538 H8         1.6259     5.5213  1557.9069 H        480 DG      0.0000
    539 H1        -0.7472    -0.4431  1557.4862 H        480 DG      0.0000
    540 H21        0.8616    -1.8922  1557.7600 H        480 DG      0.0000
    541 H22        2.5196    -1.4084  1558.0382 H        480 DG      0.0000
    542 P          6.9123     3.9093  1556.5721 P.3      479 DT      0.0000
    543 OP1        8.3524     3.7139  1556.1812 O.co2    479 DT      0.0000
    544 OP2        6.3186     5.0746  1555.8716 O.co2    479 DT      0.0000
    545 O5'        6.1145     2.5259  1556.4412 O.3      479 DT      0.0000
    546 C5'        6.8700     1.3014  1556.7089 C.3      479 DT      0.0000
    547 C4'        6.2204     0.1635  1555.9518 C.3      479 DT      0.0000
    548 O4'        4.8071     0.2545  1555.9245 O.3      479 DT      0.0000
    549 C3'        6.6577     0.0888  1554.4971 C.3      479 DT      0.0000
    550 O3'        6.8266    -1.2572  1554.0020 O.3      479 DT      0.0000
    551 C2'        5.5483     0.8200  1553.7743 C.3      479 DT      0.0000
    552 C1'        4.3549     0.2909  1554.5524 C.3      479 DT      0.0000
    553 N1         3.2776     1.2816  1554.4011 N.am     479 DT      0.0000
    554 C2         1.9779     0.7972  1554.5079 C.2      479 DT      0.0000
    555 O2         1.7732    -0.3970  1554.6976 O.2      479 DT      0.0000
    556 N3         0.9621     1.7039  1554.3877 N.am     479 DT      0.0000
    557 C4         1.1996     3.0280  1554.1701 C.2      479 DT      0.0000
    558 O4         0.1873     3.7978  1554.0725 O.2      479 DT      0.0000
    559 C5         2.5411     3.4942  1554.0637 C.2      479 DT      0.0000
    560 C7         2.8149     4.9530  1553.8348 C.3      479 DT      0.0000
    561 C6         3.5293     2.6041  1554.1855 C.2      479 DT      0.0000
    562 H5'        7.9003     1.4244  1556.3752 H        479 DT      0.0000
    563 H5''       6.8540     1.0870  1557.7775 H        479 DT      0.0000
    564 H4'        6.4937    -0.7721  1556.4398 H        479 DT      0.0000
    565 H3'        7.5912     0.6378  1554.3731 H        479 DT      0.0000
    566 H2'        5.6467     1.9017  1553.8658 H        479 DT      0.0000
    567 H2''       5.4980     0.5188  1552.7279 H        479 DT      0.0000
    568 H1'        4.0492    -0.6948  1554.2017 H        479 DT      0.0000
    569 H3         0.0073     1.3831  1554.4624 H        479 DT      0.0000
    570 H6         4.5530     2.9402  1554.1113 H        479 DT      0.0000
    571 H71        1.8711     5.4939  1553.7661 H        479 DT      0.0000
    572 H72        3.3998     5.3474  1554.6657 H        479 DT      0.0000
    573 H73        3.3729     5.0767  1552.9066 H        479 DT      0.0000
    574 P          8.2915    -1.3112  1553.2236 P.3      478 DG      0.0000
    575 OP1        9.4099    -1.7827  1554.0949 O.co2    478 DG      0.0000
    576 OP2        8.3765     0.1140  1552.8181 O.co2    478 DG      0.0000
    577 O5'        8.0045    -2.4532  1552.1428 O.3      478 DG      0.0000
    578 C5'        8.0331    -3.8399  1552.5663 C.3      478 DG      0.0000
    579 C4'        6.6936    -4.4113  1552.1186 C.3      478 DG      0.0000
    580 O4'        5.6654    -3.4798  1552.3893 O.3      478 DG      0.0000
    581 C3'        6.6205    -4.7552  1550.6308 C.3      478 DG      0.0000
    582 O3'        6.2603    -6.1091  1550.4223 O.3      478 DG      0.0000
    583 C2'        5.6631    -3.7275  1550.0541 C.3      478 DG      0.0000
    584 C1'        4.7963    -3.3765  1551.2403 C.3      478 DG      0.0000
    585 N9         4.2656    -2.0162  1551.1167 N.ar     478 DG      0.0000
    586 C8         4.9555    -0.8479  1550.9578 C.ar     478 DG      0.0000
    587 N7         4.1879     0.2118  1550.8798 N.ar     478 DG      0.0000
    588 C5         2.8985    -0.2939  1551.0173 C.ar     478 DG      0.0000
    589 C6         1.6284     0.3406  1551.0268 C.2      478 DG      0.0000
    590 O6         1.3997     1.5418  1550.9277 O.2      478 DG      0.0000
    591 N1         0.5695    -0.5094  1551.1757 N.am     478 DG      0.0000
    592 C2         0.7359    -1.8668  1551.3086 C.2      478 DG      0.0000
    593 N2        -0.3824    -2.5801  1551.4443 N.pl3    478 DG      0.0000
    594 N3         1.8992    -2.5256  1551.3129 N.2      478 DG      0.0000
    595 C4         2.9391    -1.6703  1551.1622 C.ar     478 DG      0.0000
    596 H5'        8.8560    -4.3706  1552.0875 H        478 DG      0.0000
    597 H5''       8.1253    -3.9010  1553.6506 H        478 DG      0.0000
    598 H4'        6.4969    -5.3174  1552.6916 H        478 DG      0.0000
    599 H3'        7.6047    -4.5909  1550.1922 H        478 DG      0.0000
    600 H2'        6.2002    -2.8526  1549.6878 H        478 DG      0.0000
    601 H2''       5.0624    -4.1685  1549.2586 H        478 DG      0.0000
    602 H1'        3.9768    -4.0900  1551.3273 H        478 DG      0.0000
    603 H8         6.0331    -0.8016  1550.9017 H        478 DG      0.0000
    604 H1        -0.3655    -0.1280  1551.1886 H        478 DG      0.0000
    605 H21       -1.2799    -2.1168  1551.4452 H        478 DG      0.0000
    606 H22       -0.3320    -3.5836  1551.5461 H        478 DG      0.0000
    607 P          5.1700    -6.8560  1549.5560 P.3      477 DA      0.0000
    608 OP1        4.5993    -8.0463  1550.3374 O.co2    477 DA      0.0000
    609 OP2        5.8818    -7.3209  1548.3633 O.co2    477 DA      0.0000
    610 O5'        3.9331    -5.8102  1549.3812 O.3      477 DA      0.0000
    611 C5'        3.0156    -5.8552  1550.5377 C.3      477 DA      0.0000
    612 C4'        1.6801    -6.3180  1550.0099 C.3      477 DA      0.0000
    613 O4'        0.7915    -5.2526  1549.7876 O.3      477 DA      0.0000
    614 C3'        1.7884    -7.0437  1548.6694 C.3      477 DA      0.0000
    615 O3'        0.9460    -8.1688  1548.5942 O.3      477 DA      0.0000
    616 C2'        1.5584    -5.9218  1547.6728 C.3      477 DA      0.0000
    617 C1'        0.7739    -4.8634  1548.3966 C.3      477 DA      0.0000
    618 N9         1.3355    -3.5206  1548.1711 N.ar     477 DA      0.0000
    619 C8         2.6502    -3.1516  1547.9848 C.ar     477 DA      0.0000
    620 N7         2.8292    -1.8656  1547.7889 N.ar     477 DA      0.0000
    621 C5         1.5427    -1.3486  1547.8757 C.ar     477 DA      0.0000
    622 C6         1.0573    -0.0243  1547.7701 C.ar     477 DA      0.0000
    623 N6         1.8289     1.0271  1547.5576 N.pl3    477 DA      0.0000
    624 N1        -0.2899     0.1313  1547.8938 N.ar     477 DA      0.0000
    625 C2        -1.1112    -0.9367  1548.1183 C.ar     477 DA      0.0000
    626 N3        -0.7191    -2.2038  1548.2342 N.ar     477 DA      0.0000
    627 C4         0.6216    -2.3457  1548.0981 C.ar     477 DA      0.0000
    628 H5'        3.3874    -6.5553  1551.2857 H        477 DA      0.0000
    629 H5''       2.9186    -4.8612  1550.9743 H        477 DA      0.0000
    630 H4'        1.2347    -6.9964  1550.7375 H        477 DA      0.0000
    631 H3'        2.8168    -7.3869  1548.5563 H        477 DA      0.0000
    632 H2'        0.9938    -6.2891  1546.8159 H        477 DA      0.0000
    633 H2''       2.5145    -5.5158  1547.3423 H        477 DA      0.0000
    634 H1'       -0.2553    -4.8801  1548.0384 H        477 DA      0.0000
    635 H8         3.4649    -3.8606  1547.9987 H        477 DA      0.0000
    636 H2        -2.1684    -0.7363  1548.2096 H        477 DA      0.0000
    637 H61        1.5568     1.9472  1547.8730 H        477 DA      0.0000
    638 H62        2.7062     0.9085  1547.0714 H        477 DA      0.0000
    639 P          0.0730    -8.7445  1547.4096 P.3      476 DA      0.0000
    640 OP1       -0.8861    -9.8549  1547.9295 O.co2    476 DA      0.0000
    641 OP2        1.0675    -9.3592  1546.4759 O.co2    476 DA      0.0000
    642 O5'       -0.8636    -7.5818  1546.9069 O.3      476 DA      0.0000
    643 C5'       -2.2305    -7.5093  1547.3627 C.3      476 DA      0.0000
    644 C4'       -2.8682    -6.3302  1546.6608 C.3      476 DA      0.0000
    645 O4'       -2.0350    -5.2128  1546.5400 O.3      476 DA      0.0000
    646 C3'       -3.3661    -6.6556  1545.2533 C.3      476 DA      0.0000
    647 O3'       -4.8034    -6.5704  1545.2218 O.3      476 DA      0.0000
    648 C2'       -2.5620    -5.7152  1544.3537 C.3      476 DA      0.0000
    649 C1'       -2.2649    -4.5526  1545.2515 C.3      476 DA      0.0000
    650 N9        -1.0569    -3.7909  1544.9519 N.ar     476 DA      0.0000
    651 C8         0.2328    -4.2401  1544.7572 C.ar     476 DA      0.0000
    652 N7         1.1042    -3.2777  1544.5517 N.ar     476 DA      0.0000
    653 C5         0.3535    -2.1206  1544.6263 C.ar     476 DA      0.0000
    654 C6         0.7040    -0.7584  1544.4928 C.ar     476 DA      0.0000
    655 N6         1.9397    -0.3322  1544.2496 N.pl3    476 DA      0.0000
    656 N1        -0.3318     0.1286  1544.6416 N.ar     476 DA      0.0000
    657 C2        -1.5924    -0.2733  1544.8941 C.ar     476 DA      0.0000
    658 N3        -1.9967    -1.5395  1545.0330 N.ar     476 DA      0.0000
    659 C4        -0.9740    -2.4110  1544.8858 C.ar     476 DA      0.0000
    660 H5'       -2.7593    -8.4276  1547.1076 H        476 DA      0.0000
    661 H5''      -2.2539    -7.3555  1548.4415 H        476 DA      0.0000
    662 H4'       -3.7337    -6.0290  1547.2509 H        476 DA      0.0000
    663 H3'       -3.0797    -7.6807  1545.0183 H        476 DA      0.0000
    664 H2'       -1.6423    -6.1913  1544.0138 H        476 DA      0.0000
    665 H2''      -3.1630    -5.3957  1543.5024 H        476 DA      0.0000
    666 H1'       -3.1276    -3.8891  1545.3126 H        476 DA      0.0000
    667 H8         0.5017    -5.2859  1544.7721 H        476 DA      0.0000
    668 H2        -2.3434     0.4964  1544.9932 H        476 DA      0.0000
    669 H61        2.1355     0.6141  1544.5436 H        476 DA      0.0000
    670 H62        2.6339    -0.9137  1543.8023 H        476 DA      0.0000
    671 P         -5.5717    -6.8594  1543.8369 P.3      475 DT      0.0000
    672 OP1       -7.0523    -7.0775  1543.8950 O.co2    475 DT      0.0000
    673 OP2       -4.7734    -8.0147  1543.3242 O.co2    475 DT      0.0000
    674 O5'       -5.3470    -5.3652  1543.1337 O.3      475 DT      0.0000
    675 C5'       -5.5464    -4.3326  1544.1460 C.3      475 DT      0.0000
    676 C4'       -5.8854    -3.0463  1543.4631 C.3      475 DT      0.0000
    677 O4'       -4.7867    -2.2036  1543.2827 O.3      475 DT      0.0000
    678 C3'       -6.5414    -3.2184  1542.1018 C.3      475 DT      0.0000
    679 O3'       -7.5506    -2.2370  1541.8345 O.3      475 DT      0.0000
    680 C2'       -5.2969    -3.1346  1541.2085 C.3      475 DT      0.0000
    681 C1'       -4.5367    -1.9927  1541.8485 C.3      475 DT      0.0000
    682 N1        -3.0853    -2.1208  1541.6185 N.am     475 DT      0.0000
    683 C2        -2.3520    -0.9536  1541.4969 C.2      475 DT      0.0000
    684 O2        -2.8996     0.1494  1541.5337 O.2      475 DT      0.0000
    685 N3        -0.9980    -1.0605  1541.3295 N.am     475 DT      0.0000
    686 C4        -0.3723    -2.2671  1541.2810 C.2      475 DT      0.0000
    687 O4         0.8812    -2.2724  1541.0955 O.2      475 DT      0.0000
    688 C5        -1.1421    -3.4547  1541.4294 C.2      475 DT      0.0000
    689 C7        -0.4817    -4.8118  1541.3773 C.3      475 DT      0.0000
    690 C6        -2.4625    -3.3332  1541.6024 C.2      475 DT      0.0000
    691 H5'       -6.3626    -4.6218  1544.8081 H        475 DT      0.0000
    692 H5''      -4.6319    -4.2083  1544.7261 H        475 DT      0.0000
    693 H4'       -6.5958    -2.5195  1544.1001 H        475 DT      0.0000
    694 H3'       -6.9751    -4.2159  1542.0298 H        475 DT      0.0000
    695 H2'       -4.7228    -4.0606  1541.2391 H        475 DT      0.0000
    696 H2''      -5.5740    -2.8867  1540.1839 H        475 DT      0.0000
    697 H1'       -4.9113    -1.0251  1541.5146 H        475 DT      0.0000
    698 H3        -0.4472    -0.2187  1541.2394 H        475 DT      0.0000
    699 H6        -3.0557    -4.2262  1541.7338 H        475 DT      0.0000
    700 H71       -0.5741    -5.2231  1540.3721 H        475 DT      0.0000
    701 H72       -0.9675    -5.4796  1542.0889 H        475 DT      0.0000
    702 H73        0.5730    -4.7127  1541.6338 H        475 DT      0.0000
    703 P         -8.2218    -2.3003  1540.3446 P.3      474 DT      0.0000
    704 OP1       -9.6930    -2.6928  1540.4926 O.co2    474 DT      0.0000
    705 OP2       -7.4669    -3.4125  1539.6748 O.co2    474 DT      0.0000
    706 O5'       -8.0498    -0.9047  1539.6926 O.3      474 DT      0.0000
    707 C5'       -8.0010     0.3082  1540.4440 C.3      474 DT      0.0000
    708 C4'       -7.1562     1.2892  1539.6960 C.3      474 DT      0.0000
    709 O4'       -5.7722     1.0726  1539.6390 O.3      474 DT      0.0000
    710 C3'       -7.5389     1.5866  1538.2299 C.3      474 DT      0.0000
    711 O3'       -7.2018     2.9732  1538.1262 O.3      474 DT      0.0000
    712 C2'       -6.5511     0.6947  1537.4662 C.3      474 DT      0.0000
    713 C1'       -5.3096     1.0850  1538.2419 C.3      474 DT      0.0000
    714 N1        -4.1735     0.1651  1538.1358 N.am     474 DT      0.0000
    715 C2        -2.9092     0.7695  1538.1351 C.2      474 DT      0.0000
    716 O2        -2.7903     1.9958  1538.1782 O.2      474 DT      0.0000
    717 N3        -1.8251    -0.0586  1538.0817 N.am     474 DT      0.0000
    718 C4        -1.9355    -1.4160  1538.0219 C.2      474 DT      0.0000
    719 O4        -0.8687    -2.0981  1537.9595 O.2      474 DT      0.0000
    720 C5        -3.2303    -2.0030  1538.0302 C.2      474 DT      0.0000
    721 C7        -3.3677    -3.5099  1537.9688 C.3      474 DT      0.0000
    722 C6        -4.2879    -1.1891  1538.0967 C.2      474 DT      0.0000
    723 H5'       -9.0080     0.7070  1540.5662 H        474 DT      0.0000
    724 H5''      -7.5610     0.1162  1541.4226 H        474 DT      0.0000
    725 H4'       -7.2782     2.2354  1540.2232 H        474 DT      0.0000
    726 H3'       -8.5833     1.3743  1538.0012 H        474 DT      0.0000
    727 H2'       -6.4825     0.9578  1536.4106 H        474 DT      0.0000
    728 H2''      -6.7860    -0.3615  1537.5978 H        474 DT      0.0000
    729 H1'       -4.9990     2.0919  1537.9629 H        474 DT      0.0000
    730 H3        -0.9023     0.3519  1538.0866 H        474 DT      0.0000
    731 H6        -5.2755    -1.6256  1538.1204 H        474 DT      0.0000
    732 H71       -2.3780    -3.9639  1537.9199 H        474 DT      0.0000
    733 H72       -3.9382    -3.7866  1537.0822 H        474 DT      0.0000
    734 H73       -3.8863    -3.8641  1538.8597 H        474 DT      0.0000
    735 P         -7.5951     3.9438  1536.9800 P.3      473 DC      0.0000
    736 OP1       -8.1676     5.2250  1537.5891 O.co2    473 DC      0.0000
    737 OP2       -8.6594     3.2398  1536.1981 O.co2    473 DC      0.0000
    738 O5'       -6.1589     4.1549  1536.2406 O.3      473 DC      0.0000
    739 C5'       -5.2104     5.0051  1536.9651 C.3      473 DC      0.0000
    740 C4'       -4.4214     5.7426  1535.9145 C.3      473 DC      0.0000
    741 O4'       -3.1699     5.1443  1535.6693 O.3      473 DC      0.0000
    742 C3'       -5.1027     5.8604  1534.5501 C.3      473 DC      0.0000
    743 O3'       -4.8120     7.0668  1533.8408 O.3      473 DC      0.0000
    744 C2'       -4.5879     4.5876  1533.8640 C.3      473 DC      0.0000
    745 C1'       -3.1663     4.4711  1534.4106 C.3      473 DC      0.0000
    746 N1        -2.8392     3.0307  1534.5284 N.am     473 DC      0.0000
    747 C2        -1.4882     2.6871  1534.5456 C.2      473 DC      0.0000
    748 O2        -0.6060     3.5539  1534.4769 O.2      473 DC      0.0000
    749 N3        -1.1813     1.3572  1534.6489 N.2      473 DC      0.0000
    750 C4        -2.1409     0.3979  1534.7196 C.2      473 DC      0.0000
    751 N4        -1.7913    -0.8863  1534.8215 N.pl3    473 DC      0.0000
    752 C5        -3.5124     0.7757  1534.6945 C.2      473 DC      0.0000
    753 C6        -3.8129     2.0823  1534.6009 C.2      473 DC      0.0000
    754 H5'       -5.7449     5.7108  1537.6010 H        473 DC      0.0000
    755 H5''      -4.5435     4.3897  1537.5690 H        473 DC      0.0000
    756 H4'       -4.2401     6.7522  1536.2833 H        473 DC      0.0000
    757 H3'       -6.1812     5.7793  1534.6843 H        473 DC      0.0000
    758 H2'       -4.5853     4.6980  1532.7796 H        473 DC      0.0000
    759 H2''      -5.1843     3.7245  1534.1600 H        473 DC      0.0000
    760 H1'       -2.4660     4.9570  1533.7312 H        473 DC      0.0000
    761 H5        -4.2926     0.0309  1534.7492 H        473 DC      0.0000
    762 H6        -4.8491     2.3863  1534.5828 H        473 DC      0.0000
    763 H41       -0.8149    -1.1438  1534.8422 H        473 DC      0.0000
    764 H42       -2.5032    -1.6006  1534.8779 H        473 DC      0.0000
    765 P         -4.6238     7.2056  1532.2088 P.3      472 DA      0.0000
    766 OP1       -4.9003     8.6417  1531.8193 O.co2    472 DA      0.0000
    767 OP2       -5.5719     6.2102  1531.6388 O.co2    472 DA      0.0000
    768 O5'       -3.0588     6.9378  1532.0433 O.3      472 DA      0.0000
    769 C5'       -2.1243     7.9876  1532.5087 C.3      472 DA      0.0000
    770 C4'       -0.9104     7.7330  1531.6314 C.3      472 DA      0.0000
    771 O4'       -0.3853     6.4264  1531.8988 O.3      472 DA      0.0000
    772 C3'       -1.2351     7.7202  1530.1270 C.3      472 DA      0.0000
    773 O3'       -0.0642     7.8586  1529.3380 O.3      472 DA      0.0000
    774 C2'       -1.6802     6.2582  1529.9396 C.3      472 DA      0.0000
    775 C1'       -0.4653     5.6525  1530.6942 C.3      472 DA      0.0000
    776 N9        -0.7940     4.2381  1530.8396 N.ar     472 DA      0.0000
    777 C8        -2.0570     3.6945  1530.9125 C.ar     472 DA      0.0000
    778 N7        -2.0555     2.3901  1531.0271 N.ar     472 DA      0.0000
    779 C5        -0.6883     2.0604  1531.0208 C.ar     472 DA      0.0000
    780 C6        -0.0325     0.8027  1531.1207 C.ar     472 DA      0.0000
    781 N6        -0.6746    -0.3626  1531.2435 N.pl3    472 DA      0.0000
    782 N1         1.3276     0.8727  1531.0855 N.ar     472 DA      0.0000
    783 C2         1.9798     2.0551  1530.9667 C.ar     472 DA      0.0000
    784 N3         1.4289     3.2690  1530.8752 N.ar     472 DA      0.0000
    785 C4         0.0872     3.1873  1530.9027 C.ar     472 DA      0.0000
    786 H5'       -2.5324     8.9844  1532.3420 H        472 DA      0.0000
    787 H5''      -1.8765     7.8438  1533.5604 H        472 DA      0.0000
    788 H4'       -0.1469     8.4837  1531.8354 H        472 DA      0.0000
    789 H3'       -2.0122     8.4354  1529.8574 H        472 DA      0.0000
    790 H2'       -2.6330     6.0383  1530.4212 H        472 DA      0.0000
    791 H2''      -1.6851     5.9706  1528.8882 H        472 DA      0.0000
    792 H1'        0.4444     5.7718  1530.1058 H        472 DA      0.0000
    793 H8        -2.9601     4.2859  1530.8785 H        472 DA      0.0000
    794 H2         3.0586     2.0113  1530.9435 H        472 DA      0.0000
    795 H61       -1.6841    -0.3828  1531.2683 H        472 DA      0.0000
    796 H62       -0.1505    -1.2233  1531.3117 H        472 DA      0.0000
    797 P          0.0204     8.9599  1528.1971 P.3      471 DC      0.0000
    798 OP1        0.4229    10.2003  1528.9773 O.co2    471 DC      0.0000
    799 OP2       -1.2445     9.1215  1527.4715 O.co2    471 DC      0.0000
    800 O5'        1.1664     8.2973  1527.2212 O.3      471 DC      0.0000
    801 C5'        2.4249     7.9033  1527.8902 C.3      471 DC      0.0000
    802 C4'        2.9334     6.6407  1527.2462 C.3      471 DC      0.0000
    803 O4'        2.4844     5.4509  1527.8833 O.3      471 DC      0.0000
    804 C3'        2.5250     6.5161  1525.7684 C.3      471 DC      0.0000
    805 O3'        3.4876     5.8545  1524.9571 O.3      471 DC      0.0000
    806 C2'        1.2747     5.5915  1525.9340 C.3      471 DC      0.0000
    807 C1'        2.0577     4.5621  1526.8296 C.3      471 DC      0.0000
    808 N1         1.1720     3.4526  1527.0675 N.am     471 DC      0.0000
    809 C2         1.7249     2.2224  1527.3846 C.2      471 DC      0.0000
    810 O2         2.9105     1.9020  1527.5251 O.2      471 DC      0.0000
    811 N3         0.8756     1.1693  1527.5829 N.2      471 DC      0.0000
    812 C4        -0.4809     1.3008  1527.4669 C.2      471 DC      0.0000
    813 N4        -1.2757     0.2410  1527.6830 N.pl3    471 DC      0.0000
    814 C5        -1.0334     2.5692  1527.1372 C.2      471 DC      0.0000
    815 C6        -0.1824     3.5838  1526.9455 C.2      471 DC      0.0000
    816 H5'        3.1643     8.6964  1527.7787 H        471 DC      0.0000
    817 H5''       2.2365     7.7244  1528.9488 H        471 DC      0.0000
    818 H4'        4.0223     6.6555  1527.2929 H        471 DC      0.0000
    819 H3'        2.2504     7.4841  1525.3494 H        471 DC      0.0000
    820 H2'        0.4447     6.0729  1526.4511 H        471 DC      0.0000
    821 H2''       0.9642     5.1526  1524.9858 H        471 DC      0.0000
    822 H1'        2.9332     4.2091  1526.2847 H        471 DC      0.0000
    823 H5        -2.1005     2.7083  1527.0451 H        471 DC      0.0000
    824 H6        -0.5847     4.5509  1526.6823 H        471 DC      0.0000
    825 H41       -0.8714    -0.6528  1527.9235 H        471 DC      0.0000
    826 H42       -2.2781     0.3372  1527.6050 H        471 DC      0.0000
    827 P          0.4442   -10.0092  1561.5562 P.3      481 DG      0.0000
    828 OP1       -0.2028   -11.3445  1561.5547 O.co2    481 DG      0.0000
    829 OP2       -0.2845    -9.1650  1562.6119 O.co2    481 DG      0.0000
    830 O5'        2.0250    -9.9766  1561.7346 O.3      481 DG      0.0000
    831 C5'        3.0482    -9.7861  1560.7346 C.3      481 DG      0.0000
    832 C4'        4.0022    -8.7208  1561.2334 C.3      481 DG      0.0000
    833 O4'        3.6207    -7.4284  1560.8143 O.3      481 DG      0.0000
    834 C3'        4.2518    -8.6355  1562.7256 C.3      481 DG      0.0000
    835 O3'        5.6693    -8.7052  1563.0376 O.3      481 DG      0.0000
    836 C2'        3.6078    -7.3285  1563.1475 C.3      481 DG      0.0000
    837 C1'        3.6495    -6.4916  1561.8919 C.3      481 DG      0.0000
    838 N9         2.5020    -5.5666  1561.8628 N.ar     481 DG      0.0000
    839 C8         1.1705    -5.8214  1562.0917 C.ar     481 DG      0.0000
    840 N7         0.3983    -4.7621  1562.0020 N.ar     481 DG      0.0000
    841 C5         1.2822    -3.7339  1561.6850 C.ar     481 DG      0.0000
    842 C6         1.0784    -2.3502  1561.4591 C.2      481 DG      0.0000
    843 O6         0.0195    -1.7221  1561.4803 O.2      481 DG      0.0000
    844 N1         2.2091    -1.6334  1561.1776 N.am     481 DG      0.0000
    845 C2         3.3869    -2.1675  1561.1169 C.2      481 DG      0.0000
    846 N2         4.2614    -1.2864  1560.8201 N.pl3    481 DG      0.0000
    847 N3         3.6889    -3.5169  1561.3256 N.2      481 DG      0.0000
    848 C4         2.5759    -4.2130  1561.5982 C.ar     481 DG      0.0000
    849 H5'        3.5878   -10.7198  1560.5759 H        481 DG      0.0000
    850 H5''       2.5920    -9.4619  1559.7993 H        481 DG      0.0000
    851 H4'        4.9666    -8.9257  1560.7687 H        481 DG      0.0000
    852 H3'        3.7383    -9.4604  1563.2196 H        481 DG      0.0000
    853 H2'        2.5805    -7.4887  1563.4745 H        481 DG      0.0000
    854 H2''       4.1895    -6.8560  1563.9390 H        481 DG      0.0000
    855 H1'        4.5795    -5.9239  1561.8599 H        481 DG      0.0000
    856 H8         0.7924    -6.8059  1562.3248 H        481 DG      0.0000
    857 H1         2.1209    -0.6415  1561.0092 H        481 DG      0.0000
    858 H21        3.9824    -0.3265  1560.6758 H        481 DG      0.0000
    859 H22        5.2324    -1.5490  1560.7297 H        481 DG      0.0000
    860 P          6.2460    -8.3598  1564.4662 P.3      482 DT      0.0000
    861 OP1        7.3439    -9.2561  1564.9778 O.co2    482 DT      0.0000
    862 OP2        5.0449    -8.6491  1565.3848 O.co2    482 DT      0.0000
    863 O5'        6.5537    -6.8409  1564.4947 O.3      482 DT      0.0000
    864 C5'        7.8955    -6.2992  1564.3508 C.3      482 DT      0.0000
    865 C4'        7.7090    -4.7974  1564.4083 C.3      482 DT      0.0000
    866 O4'        6.3795    -4.4144  1564.1331 O.3      482 DT      0.0000
    867 C3'        8.0348    -4.1310  1565.7210 C.3      482 DT      0.0000
    868 O3'        9.1635    -3.2648  1565.5328 O.3      482 DT      0.0000
    869 C2'        6.7833    -3.3461  1566.1132 C.3      482 DT      0.0000
    870 C1'        6.1607    -3.1173  1564.7605 C.3      482 DT      0.0000
    871 N1         4.7147    -2.9172  1564.8571 N.am     482 DT      0.0000
    872 C2         4.2392    -1.6492  1564.6592 C.2      482 DT      0.0000
    873 O2         4.9785    -0.6969  1564.4210 O.2      482 DT      0.0000
    874 N3         2.8842    -1.4718  1564.7402 N.am     482 DT      0.0000
    875 C4         2.0244    -2.4837  1564.9961 C.2      482 DT      0.0000
    876 O4         0.8070    -2.1669  1565.0414 O.2      482 DT      0.0000
    877 C5         2.5402    -3.8044  1565.1958 C.2      482 DT      0.0000
    878 C7         1.6237    -4.9508  1565.4757 C.3      482 DT      0.0000
    879 C6         3.8668    -3.9687  1565.1144 C.2      482 DT      0.0000
    880 H5'        8.5367    -6.6387  1565.1642 H        482 DT      0.0000
    881 H5''       8.3190    -6.5905  1563.3896 H        482 DT      0.0000
    882 H4'        8.3471    -4.3543  1563.6437 H        482 DT      0.0000
    883 H3'        8.2598    -4.8822  1566.4781 H        482 DT      0.0000
    884 H2'        6.1303    -3.9299  1566.7620 H        482 DT      0.0000
    885 H2''       7.0505    -2.3992  1566.5824 H        482 DT      0.0000
    886 H1'        6.6506    -2.3106  1564.2151 H        482 DT      0.0000
    887 H3         2.5101    -0.5438  1564.6028 H        482 DT      0.0000
    888 H6         4.2826    -4.9556  1565.2547 H        482 DT      0.0000
    889 H71        1.4958    -5.5439  1564.5702 H        482 DT      0.0000
    890 H72        0.6553    -4.5705  1565.8005 H        482 DT      0.0000
    891 H73        2.0512    -5.5744  1566.2610 H        482 DT      0.0000
    892 P         10.1670    -3.2397  1566.8127 P.3      483 DG      0.0000
    893 OP1       11.5076    -3.1281  1566.0977 O.co2    483 DG      0.0000
    894 OP2        9.9995    -4.4695  1567.5663 O.co2    483 DG      0.0000
    895 O5'        9.6188    -1.8283  1567.4223 O.3      483 DG      0.0000
    896 C5'        9.4977    -0.8387  1566.3317 C.3      483 DG      0.0000
    897 C4'        8.6912     0.3146  1566.8517 C.3      483 DG      0.0000
    898 O4'        7.3023     0.2398  1566.6711 O.3      483 DG      0.0000
    899 C3'        8.9302     0.5719  1568.3597 C.3      483 DG      0.0000
    900 O3'        9.3179     1.9581  1568.5186 O.3      483 DG      0.0000
    901 C2'        7.6284     0.1580  1569.0123 C.3      483 DG      0.0000
    902 C1'        6.6135     0.5091  1567.9308 C.3      483 DG      0.0000
    903 N9         5.3686    -0.2486  1568.1003 N.ar     483 DG      0.0000
    904 C8         5.2068    -1.5643  1568.4365 C.ar     483 DG      0.0000
    905 N7         3.9553    -1.9583  1568.5222 N.ar     483 DG      0.0000
    906 C5         3.2429    -0.8076  1568.1922 C.ar     483 DG      0.0000
    907 C6         1.8409    -0.5752  1568.0979 C.2      483 DG      0.0000
    908 O6         0.9164    -1.3789  1568.2902 O.2      483 DG      0.0000
    909 N1         1.4997     0.7152  1567.7628 N.am     483 DG      0.0000
    910 C2         2.4401     1.6742  1567.5391 C.2      483 DG      0.0000
    911 N2         1.9259     2.8718  1567.2302 N.pl3    483 DG      0.0000
    912 N3         3.7586     1.5059  1567.6101 N.2      483 DG      0.0000
    913 C4         4.0940     0.2460  1567.9367 C.ar     483 DG      0.0000
    914 H5'       10.4873    -0.4943  1566.0312 H        483 DG      0.0000
    915 H5''       8.9895    -1.2895  1565.4793 H        483 DG      0.0000
    916 H4'        9.0318     1.2038  1566.3211 H        483 DG      0.0000
    917 H3'        9.7345    -0.0725  1568.7145 H        483 DG      0.0000
    918 H2'        7.6178    -0.9089  1569.2353 H        483 DG      0.0000
    919 H2''       7.4472     0.7419  1569.9147 H        483 DG      0.0000
    920 H1'        6.3892     1.5741  1567.9897 H        483 DG      0.0000
    921 H8         6.0404    -2.2269  1568.6171 H        483 DG      0.0000
    922 H1         0.5228     0.9582  1567.6805 H        483 DG      0.0000
    923 H21        0.9245     2.9938  1567.1800 H        483 DG      0.0000
    924 H22        2.5395     3.6530  1567.0476 H        483 DG      0.0000
    925 P          9.7480     2.5335  1569.9070 P.3      484 DA      0.0000
    926 OP1       11.1956     2.4270  1570.2624 O.co2    484 DA      0.0000
    927 OP2        8.9632     1.5060  1570.8027 O.co2    484 DA      0.0000
    928 O5'        8.9976     3.9081  1570.1561 O.3      484 DA      0.0000
    929 C5'        8.4638     4.7542  1569.1271 C.3      484 DA      0.0000
    930 C4'        7.0698     5.1315  1569.6014 C.3      484 DA      0.0000
    931 O4'        6.2025     4.0215  1569.5110 O.3      484 DA      0.0000
    932 C3'        6.9623     5.6639  1571.0305 C.3      484 DA      0.0000
    933 O3'        6.1567     6.8593  1571.0827 O.3      484 DA      0.0000
    934 C2'        6.3244     4.4789  1571.7659 C.3      484 DA      0.0000
    935 C1'        5.3543     4.0189  1570.6883 C.3      484 DA      0.0000
    936 N9         4.8102     2.6765  1570.9167 N.ar     484 DA      0.0000
    937 C8         5.4560     1.4923  1571.1325 C.ar     484 DA      0.0000
    938 N7         4.6492     0.4678  1571.2974 N.ar     484 DA      0.0000
    939 C5         3.3829     1.0158  1571.1572 C.ar     484 DA      0.0000
    940 C6         2.0992     0.4297  1571.2052 C.ar     484 DA      0.0000
    941 N6         1.8690    -0.8670  1571.4250 N.pl3    484 DA      0.0000
    942 N1         1.0573     1.2929  1571.0154 N.ar     484 DA      0.0000
    943 C2         1.2683     2.6115  1570.7976 C.ar     484 DA      0.0000
    944 N3         2.4460     3.2322  1570.7394 N.ar     484 DA      0.0000
    945 C4         3.4598     2.3675  1570.9262 C.ar     484 DA      0.0000
    946 H5'        8.4124     4.2173  1568.1799 H        484 DA      0.0000
    947 H5''       9.0785     5.6479  1569.0193 H        484 DA      0.0000
    948 H4'        6.6901     5.9032  1568.9316 H        484 DA      0.0000
    949 H3'        7.9559     5.8634  1571.4319 H        484 DA      0.0000
    950 H2'        7.0563     3.7094  1572.0114 H        484 DA      0.0000
    951 H2''       5.7917     4.8115  1572.6568 H        484 DA      0.0000
    952 H1'        4.5456     4.7407  1570.5738 H        484 DA      0.0000
    953 H8         6.5320     1.4056  1571.1646 H        484 DA      0.0000
    954 H2         0.3907     3.2250  1570.6563 H        484 DA      0.0000
    955 H61        2.5555    -1.6014  1571.3276 H        484 DA      0.0000
    956 H62        0.9401    -1.2245  1571.2535 H        484 DA      0.0000
    957 P          6.3786     8.0196  1572.2242 P.3      485 DA      0.0000
    958 OP1        6.7569     9.3185  1571.5571 O.co2    485 DA      0.0000
    959 OP2        7.4331     7.4036  1573.0551 O.co2    485 DA      0.0000
    960 O5'        4.8948     8.2682  1572.7550 O.3      485 DA      0.0000
    961 C5'        3.8307     8.7408  1571.9307 C.3      485 DA      0.0000
    962 C4'        2.5319     8.1521  1572.4530 C.3      485 DA      0.0000
    963 O4'        2.5836     6.7536  1572.4812 O.3      485 DA      0.0000
    964 C3'        2.0554     8.6107  1573.8203 C.3      485 DA      0.0000
    965 O3'        0.8131     9.3095  1573.7425 O.3      485 DA      0.0000
    966 C2'        2.0269     7.3205  1574.6490 C.3      485 DA      0.0000
    967 C1'        1.8788     6.2348  1573.6552 C.3      485 DA      0.0000
    968 N9         2.4367     4.8968  1573.9233 N.ar     485 DA      0.0000
    969 C8         3.7444     4.4918  1574.0385 C.ar     485 DA      0.0000
    970 N7         3.8931     3.1993  1574.2078 N.ar     485 DA      0.0000
    971 C5         2.5920     2.7083  1574.1708 C.ar     485 DA      0.0000
    972 C6         2.0738     1.3873  1574.2912 C.ar     485 DA      0.0000
    973 N6         2.7966     0.2909  1574.4829 N.pl3    485 DA      0.0000
    974 N1         0.7095     1.2745  1574.1930 N.ar     485 DA      0.0000
    975 C2        -0.0674     2.3804  1574.0040 C.ar     485 DA      0.0000
    976 N3         0.3496     3.6367  1573.8961 N.ar     485 DA      0.0000
    977 C4         1.6912     3.7318  1573.9880 C.ar     485 DA      0.0000
    978 H5'        3.9923     8.4229  1570.9006 H        485 DA      0.0000
    979 H5''       3.7856     9.8289  1571.9766 H        485 DA      0.0000
    980 H4'        1.7534     8.4243  1571.7403 H        485 DA      0.0000
    981 H3'        2.8048     9.2795  1574.2435 H        485 DA      0.0000
    982 H2'        2.9546     7.2039  1575.2093 H        485 DA      0.0000
    983 H2''       1.1747     7.3281  1575.3286 H        485 DA      0.0000
    984 H1'        0.8222     6.1290  1573.4092 H        485 DA      0.0000
    985 H8         4.5775     5.1776  1573.9936 H        485 DA      0.0000
    986 H2        -1.1327     2.2168  1573.9348 H        485 DA      0.0000
    987 H61        3.7519     0.3253  1574.8090 H        485 DA      0.0000
    988 H62        2.3770    -0.6087  1574.2961 H        485 DA      0.0000
    989 P          0.3621    10.5450  1574.6987 P.3      486 DT      0.0000
    990 OP1       -0.3270    11.6467  1573.9014 O.co2    486 DT      0.0000
    991 OP2        1.4699    10.9876  1575.5193 O.co2    486 DT      0.0000
    992 O5'       -0.9061     9.8857  1575.5124 O.3      486 DT      0.0000
    993 C5'       -1.7153     9.0631  1574.5673 C.3      486 DT      0.0000
    994 C4'       -2.0655     7.8263  1575.3550 C.3      486 DT      0.0000
    995 O4'       -0.9776     6.9501  1575.5470 O.3      486 DT      0.0000
    996 C3'       -2.5678     8.1612  1576.7716 C.3      486 DT      0.0000
    997 O3'       -3.9833     8.1459  1576.7733 O.3      486 DT      0.0000
    998 C2'       -1.9135     7.1136  1577.6689 C.3      486 DT      0.0000
    999 C1'       -1.4155     6.1128  1576.7043 C.3      486 DT      0.0000
   1000 N1        -0.2935     5.2523  1577.0440 N.am     486 DT      0.0000
   1001 C2        -0.5624     3.8941  1577.1819 C.2      486 DT      0.0000
   1002 O2        -1.7145     3.4897  1577.0939 O.2      486 DT      0.0000
   1003 N3         0.4794     3.0539  1577.4359 N.am     486 DT      0.0000
   1004 C4         1.7674     3.4912  1577.5561 C.2      486 DT      0.0000
   1005 O4         2.6832     2.6455  1577.8113 O.2      486 DT      0.0000
   1006 C5         2.0234     4.8915  1577.3845 C.2      486 DT      0.0000
   1007 C7         3.4275     5.4222  1577.4720 C.3      486 DT      0.0000
   1008 C6         0.9927     5.7155  1577.1287 C.2      486 DT      0.0000
   1009 H5'       -2.6166     9.5966  1574.2657 H        486 DT      0.0000
   1010 H5''      -1.1215     8.7987  1573.6923 H        486 DT      0.0000
   1011 H4'       -2.8532     7.2899  1574.8259 H        486 DT      0.0000
   1012 H3'       -2.2157     9.1529  1577.0560 H        486 DT      0.0000
   1013 H2'       -1.0937     7.5464  1578.2423 H        486 DT      0.0000
   1014 H2''      -2.6515     6.6672  1578.3353 H        486 DT      0.0000
   1015 H1'       -2.2506     5.4883  1576.3869 H        486 DT      0.0000
   1016 H3         0.2913     2.0670  1577.5396 H        486 DT      0.0000
   1017 H6         1.1834     6.7691  1576.9866 H        486 DT      0.0000
   1018 H71        4.1137     4.6026  1577.6851 H        486 DT      0.0000
   1019 H72        3.6998     5.8867  1576.5242 H        486 DT      0.0000
   1020 H73        3.4870     6.1626  1578.2698 H        486 DT      0.0000
   1021 P         -4.9648     8.6166  1577.8799 P.3      487 DT      0.0000
   1022 OP1       -6.3508     8.9468  1577.2678 O.co2    487 DT      0.0000
   1023 OP2       -4.3418     9.8092  1578.5099 O.co2    487 DT      0.0000
   1024 O5'       -5.2342     7.3048  1578.7622 O.3      487 DT      0.0000
   1025 C5'       -6.0185     6.3103  1578.0505 C.3      487 DT      0.0000
   1026 C4'       -5.8480     4.9943  1578.7266 C.3      487 DT      0.0000
   1027 O4'       -4.5127     4.5053  1578.7033 O.3      487 DT      0.0000
   1028 C3'       -6.3020     4.9714  1580.1932 C.3      487 DT      0.0000
   1029 O3'       -7.0422     3.7947  1580.4573 O.3      487 DT      0.0000
   1030 C2'       -4.9425     4.9110  1580.9296 C.3      487 DT      0.0000
   1031 C1'       -4.2722     3.8961  1580.0260 C.3      487 DT      0.0000
   1032 N1        -2.8561     3.7864  1580.3237 N.am     487 DT      0.0000
   1033 C2        -2.2882     2.5238  1580.3785 C.2      487 DT      0.0000
   1034 O2        -3.0043     1.5394  1580.1901 O.2      487 DT      0.0000
   1035 N3        -0.9513     2.4275  1580.6445 N.am     487 DT      0.0000
   1036 C4        -0.1719     3.5240  1580.8515 C.2      487 DT      0.0000
   1037 O4         1.0614     3.3579  1581.0748 O.2      487 DT      0.0000
   1038 C5        -0.7660     4.8181  1580.7864 C.2      487 DT      0.0000
   1039 C7         0.0276     6.0746  1580.9963 C.3      487 DT      0.0000
   1040 C6        -2.0802     4.8943  1580.5253 C.2      487 DT      0.0000
   1041 H5'       -7.0705     6.5953  1578.0629 H        487 DT      0.0000
   1042 H5''      -5.6709     6.2396  1577.0197 H        487 DT      0.0000
   1043 H4'       -6.4638     4.2740  1578.1881 H        487 DT      0.0000
   1044 H3'       -6.8632     5.8682  1580.4557 H        487 DT      0.0000
   1045 H2'       -4.4273     5.8714  1580.9283 H        487 DT      0.0000
   1046 H2''      -5.0575     4.5246  1581.9423 H        487 DT      0.0000
   1047 H1'       -4.7617     2.9252  1580.1016 H        487 DT      0.0000
   1048 H3        -0.5274     1.5119  1580.6889 H        487 DT      0.0000
   1049 H6        -2.5431     5.8686  1580.4722 H        487 DT      0.0000
   1050 H71        1.0683     5.8188  1581.1952 H        487 DT      0.0000
   1051 H72       -0.0293     6.6937  1580.1010 H        487 DT      0.0000
   1052 H73       -0.3799     6.6243  1581.8447 H        487 DT      0.0000
   1053 P         -8.4476     3.4508  1581.0652 P.3      488 DC      0.0000
   1054 OP1       -9.4088     2.9653  1579.9973 O.co2    488 DC      0.0000
   1055 OP2       -8.8610     4.6601  1581.8002 O.co2    488 DC      0.0000
   1056 O5'       -7.9693     2.1283  1581.8913 O.3      488 DC      0.0000
   1057 C5'       -7.2903     1.3101  1580.8690 C.3      488 DC      0.0000
   1058 C4'       -6.7505     0.0935  1581.5655 C.3      488 DC      0.0000
   1059 O4'       -5.3813     0.1795  1581.8124 O.3      488 DC      0.0000
   1060 C3'       -7.4672    -0.2842  1582.8570 C.3      488 DC      0.0000
   1061 O3'       -7.9573    -1.6162  1582.7773 O.3      488 DC      0.0000
   1062 C2'       -6.3990     0.0330  1583.9057 C.3      488 DC      0.0000
   1063 C1'       -5.1134    -0.1786  1583.2093 C.3      488 DC      0.0000
   1064 N1        -4.0157     0.7351  1583.5414 N.am     488 DC      0.0000
   1065 C2        -2.7833     0.1379  1583.7972 C.2      488 DC      0.0000
   1066 O2        -2.6526    -1.0900  1583.8017 O.2      488 DC      0.0000
   1067 N3        -1.7234     0.9668  1584.0711 N.2      488 DC      0.0000
   1068 C4        -1.8596     2.3239  1584.0611 C.2      488 DC      0.0000
   1069 N4        -0.7757     3.0403  1584.3380 N.pl3    488 DC      0.0000
   1070 C5        -3.1115     2.9155  1583.7831 C.2      488 DC      0.0000
   1071 C6        -4.1431     2.0878  1583.5183 C.2      488 DC      0.0000
   1072 H5'       -7.9990     1.0145  1580.0954 H        488 DC      0.0000
   1073 H5''      -6.4718     1.8764  1580.4248 H        488 DC      0.0000
   1074 H4'       -6.8890    -0.7422  1580.8795 H        488 DC      0.0000
   1075 H3'       -8.3105     0.3914  1583.0003 H        488 DC      0.0000
   1076 H2'       -6.4873     1.0655  1584.2436 H        488 DC      0.0000
   1077 H2''      -6.4865    -0.6492  1584.7513 H        488 DC      0.0000
   1078 H1'       -4.7932    -1.2174  1583.2903 H        488 DC      0.0000
   1079 H5        -3.2379     3.9881  1583.7825 H        488 DC      0.0000
   1080 H6        -5.1055     2.5158  1583.2793 H        488 DC      0.0000
   1081 H41        0.0990     2.5764  1584.5372 H        488 DC      0.0000
   1082 H42       -0.8264     4.0490  1584.3493 H        488 DC      0.0000
   1083 P         -9.0902    -2.2822  1583.7293 P.3      489 DA      0.0000
   1084 OP1       -9.7332    -3.4032  1582.9356 O.co2    489 DA      0.0000
   1085 OP2      -10.0661    -1.2285  1584.0749 O.co2    489 DA      0.0000
   1086 O5'       -8.2426    -2.8366  1585.0263 O.3      489 DA      0.0000
   1087 C5'       -7.1019    -3.6996  1584.7311 C.3      489 DA      0.0000
   1088 C4'       -6.3697    -4.0444  1585.9864 C.3      489 DA      0.0000
   1089 O4'       -5.1858    -3.2784  1586.2285 O.3      489 DA      0.0000
   1090 C3'       -7.1579    -3.8444  1587.2916 C.3      489 DA      0.0000
   1091 O3'       -6.5370    -4.6170  1588.3216 O.3      489 DA      0.0000
   1092 C2'       -6.9069    -2.3384  1587.5062 C.3      489 DA      0.0000
   1093 C1'       -5.3863    -2.3872  1587.3229 C.3      489 DA      0.0000
   1094 N9        -4.8719    -1.0314  1587.2286 N.ar     489 DA      0.0000
   1095 C8        -5.5267     0.1634  1587.1128 C.ar     489 DA      0.0000
   1096 N7        -4.7453     1.2283  1587.0942 N.ar     489 DA      0.0000
   1097 C5        -3.4717     0.6878  1587.2017 C.ar     489 DA      0.0000
   1098 C6        -2.1872     1.2845  1587.2363 C.ar     489 DA      0.0000
   1099 N6        -1.9621     2.5833  1587.1510 N.pl3    489 DA      0.0000
   1100 N1        -1.1305     0.4298  1587.3688 N.ar     489 DA      0.0000
   1101 C2        -1.3181    -0.9244  1587.4490 C.ar     489 DA      0.0000
   1102 N3        -2.4886    -1.5570  1587.4192 N.ar     489 DA      0.0000
   1103 C4        -3.5262    -0.6933  1587.2962 C.ar     489 DA      0.0000
   1104 H5'       -7.4575    -4.6158  1584.2600 H        489 DA      0.0000
   1105 H5''      -6.4257    -3.1829  1584.0498 H        489 DA      0.0000
   1106 H4'       -6.0820    -5.0941  1585.9275 H        489 DA      0.0000
   1107 H3'       -8.2166    -4.0775  1587.1780 H        489 DA      0.0000
   1108 H2'       -7.3996    -1.7206  1586.7555 H        489 DA      0.0000
   1109 H2''      -7.1768    -2.0294  1588.5161 H        489 DA      0.0000
   1110 H1'       -4.9563    -2.8472  1588.2126 H        489 DA      0.0000
   1111 H8        -6.6022     0.2315  1587.0418 H        489 DA      0.0000
   1112 H2        -0.4333    -1.5362  1587.5455 H        489 DA      0.0000
   1113 H61       -1.1612     3.1718  1587.3311 H        489 DA      0.0000
   1114 H62       -2.7691     3.1026  1586.8363 H        489 DA      0.0000
   1115 P         -6.8050    -6.1883  1588.4620 P.3      490 DC      0.0000
   1116 OP1       -7.3426    -6.8061  1587.2169 O.co2    490 DC      0.0000
   1117 OP2       -7.7771    -6.2433  1589.6049 O.co2    490 DC      0.0000
   1118 O5'       -5.3614    -6.7803  1588.7452 O.3      490 DC      0.0000
   1119 C5'       -4.4241    -7.0431  1587.6575 C.3      490 DC      0.0000
   1120 C4'       -3.0756    -6.8575  1588.3624 C.3      490 DC      0.0000
   1121 O4'       -2.9494    -5.4895  1588.6744 O.3      490 DC      0.0000
   1122 C3'       -2.9540    -7.6317  1589.6723 C.3      490 DC      0.0000
   1123 O3'       -1.7563    -8.4383  1589.7402 O.3      490 DC      0.0000
   1124 C2'       -3.0155    -6.5432  1590.7545 C.3      490 DC      0.0000
   1125 C1'       -2.4017    -5.3850  1590.0784 C.3      490 DC      0.0000
   1126 N1        -2.7654    -4.0151  1590.4312 N.am     490 DC      0.0000
   1127 C2        -1.7162    -3.0983  1590.4043 C.2      490 DC      0.0000
   1128 O2        -0.5550    -3.4277  1590.1974 O.2      490 DC      0.0000
   1129 N3        -2.0175    -1.7963  1590.6574 N.2      490 DC      0.0000
   1130 C4        -3.2838    -1.3745  1590.8908 C.2      490 DC      0.0000
   1131 N4        -3.4531    -0.0740  1591.1217 N.pl3    490 DC      0.0000
   1132 C5        -4.3480    -2.3178  1590.8973 C.2      490 DC      0.0000
   1133 C6        -4.0431    -3.6007  1590.6479 C.2      490 DC      0.0000
   1134 H5'       -4.5355    -8.0568  1587.2726 H        490 DC      0.0000
   1135 H5''      -4.5455    -6.3117  1586.8584 H        490 DC      0.0000
   1136 H4'       -2.2703    -7.1526  1587.6897 H        490 DC      0.0000
   1137 H3'       -3.8223    -8.2821  1589.7782 H        490 DC      0.0000
   1138 H2'       -4.0454    -6.3311  1591.0415 H        490 DC      0.0000
   1139 H2''      -2.4275    -6.8346  1591.6248 H        490 DC      0.0000
   1140 H1'       -1.3170    -5.4919  1590.0651 H        490 DC      0.0000
   1141 H5        -5.3648    -2.0127  1591.0958 H        490 DC      0.0000
   1142 H6        -4.8396    -4.3294  1590.6182 H        490 DC      0.0000
   1143 H41       -2.6579     0.5486  1591.1107 H        490 DC      0.0000
   1144 H42       -4.3768     0.2898  1591.3079 H        490 DC      0.0000
   1145 P          3.0342     7.9272  1592.6997 P.3      490 DG      0.0000
   1146 OP1        3.5019     9.3365  1592.8785 O.co2    490 DG      0.0000
   1147 OP2        1.9749     7.7834  1591.6149 O.co2    490 DG      0.0000
   1148 O5'        4.3364     6.9421  1592.4925 O.3      490 DG      0.0000
   1149 C5'        4.7442     6.0573  1593.5883 C.3      490 DG      0.0000
   1150 C4'        5.1959     4.7438  1592.9540 C.3      490 DG      0.0000
   1151 O4'        4.1472     3.8189  1592.8582 O.3      490 DG      0.0000
   1152 C3'        5.7718     4.8867  1591.5477 C.3      490 DG      0.0000
   1153 O3'        6.9130     4.0391  1591.2807 O.3      490 DG      0.0000
   1154 C2'        4.5780     4.5259  1590.6454 C.3      490 DG      0.0000
   1155 C1'        3.9196     3.4317  1591.4692 C.3      490 DG      0.0000
   1156 N9         2.4741     3.3592  1591.1959 N.ar     490 DG      0.0000
   1157 C8         1.5903     4.4004  1591.0392 C.ar     490 DG      0.0000
   1158 N7         0.3586     4.0231  1590.8208 N.ar     490 DG      0.0000
   1159 C5         0.4300     2.6353  1590.8456 C.ar     490 DG      0.0000
   1160 C6        -0.5730     1.6418  1590.6891 C.2      490 DG      0.0000
   1161 O6        -1.7813     1.8347  1590.4923 O.2      490 DG      0.0000
   1162 N1        -0.1096     0.3522  1590.7761 N.am     490 DG      0.0000
   1163 C2         1.1948     0.0564  1590.9967 C.2      490 DG      0.0000
   1164 N2         1.4957    -1.2378  1591.0601 N.pl3    490 DG      0.0000
   1165 N3         2.1772     0.9519  1591.1545 N.2      490 DG      0.0000
   1166 C4         1.7218     2.2170  1591.0712 C.ar     490 DG      0.0000
   1167 H5'        5.5661     6.5061  1594.1461 H        490 DG      0.0000
   1168 H5''       3.8995     5.8769  1594.2532 H        490 DG      0.0000
   1169 H4'        5.9678     4.3115  1593.5907 H        490 DG      0.0000
   1170 H3'        6.0494     5.9269  1591.3772 H        490 DG      0.0000
   1171 H2'        3.9116     5.3765  1590.5027 H        490 DG      0.0000
   1172 H2''       4.9203     4.1365  1589.6866 H        490 DG      0.0000
   1173 H1'        4.3906     2.4704  1591.2640 H        490 DG      0.0000
   1174 H8         1.8874     5.4374  1591.0920 H        490 DG      0.0000
   1175 H1        -0.7675    -0.4069  1590.6713 H        490 DG      0.0000
   1176 H21        0.7704    -1.9311  1590.9450 H        490 DG      0.0000
   1177 H22        2.4495    -1.5270  1591.2233 H        490 DG      0.0000
   1178 P          7.0909     3.5750  1589.7572 P.3      489 DT      0.0000
   1179 OP1        8.5201     3.3112  1589.3663 O.co2    489 DT      0.0000
   1180 OP2        6.5535     4.7673  1589.0567 O.co2    489 DT      0.0000
   1181 O5'        6.2280     2.2313  1589.6263 O.3      489 DT      0.0000
   1182 C5'        6.9243     0.9721  1589.8939 C.3      489 DT      0.0000
   1183 C4'        6.2211    -0.1334  1589.1369 C.3      489 DT      0.0000
   1184 O4'        4.8138     0.0248  1589.1096 O.3      489 DT      0.0000
   1185 C3'        6.6544    -0.2289  1587.6822 C.3      489 DT      0.0000
   1186 O3'        6.7589    -1.5815  1587.1871 O.3      489 DT      0.0000
   1187 C2'        5.5811     0.5544  1586.9593 C.3      489 DT      0.0000
   1188 C1'        4.3638     0.0828  1587.7374 C.3      489 DT      0.0000
   1189 N1         3.3350     1.1237  1587.5861 N.am     489 DT      0.0000
   1190 C2         2.0136     0.7019  1587.6929 C.2      489 DT      0.0000
   1191 O2         1.7522    -0.4811  1587.8826 O.2      489 DT      0.0000
   1192 N3         1.0423     1.6561  1587.5727 N.am     489 DT      0.0000
   1193 C4         1.3427     2.9673  1587.3551 C.2      489 DT      0.0000
   1194 O4         0.3683     3.7845  1587.2576 O.2      489 DT      0.0000
   1195 C5         2.7049     3.3689  1587.2488 C.2      489 DT      0.0000
   1196 C7         3.0480     4.8130  1587.0198 C.3      489 DT      0.0000
   1197 C6         3.6495     2.4328  1587.3705 C.2      489 DT      0.0000
   1198 H5'        7.9593     1.0459  1589.5602 H        489 DT      0.0000
   1199 H5''       6.8981     0.7588  1590.9625 H        489 DT      0.0000
   1200 H4'        6.4494    -1.0810  1589.6248 H        489 DT      0.0000
   1201 H3'        7.6130     0.2749  1587.5582 H        489 DT      0.0000
   1202 H2'        5.7310     1.6301  1587.0509 H        489 DT      0.0000
   1203 H2''       5.5164     0.2559  1585.9129 H        489 DT      0.0000
   1204 H1'        4.0114    -0.8872  1587.3868 H        489 DT      0.0000
   1205 H3         0.0733     1.3812  1587.6474 H        489 DT      0.0000
   1206 H6         4.6880     2.7197  1587.2964 H        489 DT      0.0000
   1207 H71        2.1311     5.3983  1586.9511 H        489 DT      0.0000
   1208 H72        3.6510     5.1791  1587.8507 H        489 DT      0.0000
   1209 H73        3.6113     4.9100  1586.0917 H        489 DT      0.0000
   1210 P          8.2195    -1.7053  1586.4087 P.3      488 DG      0.0000
   1211 OP1        9.3141    -2.2296  1587.2799 O.co2    488 DG      0.0000
   1212 OP2        8.3724    -0.2857  1586.0031 O.co2    488 DG      0.0000
   1213 O5'        7.8784    -2.8323  1585.3279 O.3      488 DG      0.0000
   1214 C5'        7.8407    -4.2188  1585.7513 C.3      488 DG      0.0000
   1215 C4'        6.4755    -4.7256  1585.3036 C.3      488 DG      0.0000
   1216 O4'        5.4929    -3.7461  1585.5743 O.3      488 DG      0.0000
   1217 C3'        6.3861    -5.0656  1583.8159 C.3      488 DG      0.0000
   1218 O3'        5.9617    -6.4008  1583.6073 O.3      488 DG      0.0000
   1219 C2'        5.4788    -3.9934  1583.2392 C.3      488 DG      0.0000
   1220 C1'        4.6297    -3.6015  1584.4253 C.3      488 DG      0.0000
   1221 N9         4.1645    -2.2174  1584.3017 N.ar     488 DG      0.0000
   1222 C8         4.9094    -1.0833  1584.1429 C.ar     488 DG      0.0000
   1223 N7         4.1933     0.0117  1584.0648 N.ar     488 DG      0.0000
   1224 C5         2.8812    -0.4319  1584.2023 C.ar     488 DG      0.0000
   1225 C6         1.6428     0.2625  1584.2118 C.2      488 DG      0.0000
   1226 O6         1.4717     1.4733  1584.1127 O.2      488 DG      0.0000
   1227 N1         0.5446    -0.5360  1584.3608 N.am     488 DG      0.0000
   1228 C2         0.6460    -1.8997  1584.4936 C.2      488 DG      0.0000
   1229 N2        -0.5050    -2.5589  1584.6293 N.pl3    488 DG      0.0000
   1230 N3         1.7765    -2.6133  1584.4979 N.2      488 DG      0.0000
   1231 C4         2.8561    -1.8086  1584.3472 C.ar     488 DG      0.0000
   1232 H5'        8.6374    -4.7881  1585.2726 H        488 DG      0.0000
   1233 H5''       7.9299    -4.2842  1586.8357 H        488 DG      0.0000
   1234 H4'        6.2359    -5.6213  1585.8766 H        488 DG      0.0000
   1235 H3'        7.3770    -4.9485  1583.3773 H        488 DG      0.0000
   1236 H2'        6.0570    -3.1452  1582.8728 H        488 DG      0.0000
   1237 H2''       4.8578    -4.4052  1582.4436 H        488 DG      0.0000
   1238 H1'        3.7772    -4.2751  1584.5123 H        488 DG      0.0000
   1239 H8         5.9880    -1.0885  1584.0868 H        488 DG      0.0000
   1240 H1        -0.3712    -0.1104  1584.3736 H        488 DG      0.0000
   1241 H21       -1.3794    -2.0533  1584.6303 H        488 DG      0.0000
   1242 H22       -0.5026    -3.5637  1584.7311 H        488 DG      0.0000
   1243 P          4.8371    -7.0949  1582.7410 P.3      487 DA      0.0000
   1244 OP1        4.2102    -8.2566  1583.5224 O.co2    487 DA      0.0000
   1245 OP2        5.5258    -7.5932  1581.5483 O.co2    487 DA      0.0000
   1246 O5'        3.6515    -5.9913  1582.5662 O.3      487 DA      0.0000
   1247 C5'        2.7328    -5.9924  1583.7227 C.3      487 DA      0.0000
   1248 C4'        1.3768    -6.3910  1583.1949 C.3      487 DA      0.0000
   1249 O4'        0.5400    -5.2844  1582.9726 O.3      487 DA      0.0000
   1250 C3'        1.4503    -7.1210  1581.8544 C.3      487 DA      0.0000
   1251 O3'        0.5552    -8.2047  1581.7792 O.3      487 DA      0.0000
   1252 C2'        1.2741    -5.9894  1580.8578 C.3      487 DA      0.0000
   1253 C1'        0.5410    -4.8948  1581.5817 C.3      487 DA      0.0000
   1254 N9         1.1660    -3.5803  1581.3562 N.ar     487 DA      0.0000
   1255 C8         2.4969    -3.2745  1581.1698 C.ar     487 DA      0.0000
   1256 N7         2.7370    -1.9984  1580.9739 N.ar     487 DA      0.0000
   1257 C5         1.4766    -1.4207  1581.0608 C.ar     487 DA      0.0000
   1258 C6         1.0549    -0.0747  1580.9551 C.ar     487 DA      0.0000
   1259 N6         1.8759     0.9387  1580.7427 N.pl3    487 DA      0.0000
   1260 N1        -0.2833     0.1449  1581.0788 N.ar     487 DA      0.0000
   1261 C2        -1.1546    -0.8826  1581.3034 C.ar     487 DA      0.0000
   1262 N3        -0.8234    -2.1670  1581.4193 N.ar     487 DA      0.0000
   1263 C4         0.5089    -2.3727  1581.2831 C.ar     487 DA      0.0000
   1264 H5'        3.0708    -6.7095  1584.4708 H        487 DA      0.0000
   1265 H5''       2.6833    -4.9949  1584.1594 H        487 DA      0.0000
   1266 H4'        0.8995    -7.0473  1583.9226 H        487 DA      0.0000
   1267 H3'        2.4612    -7.5128  1581.7413 H        487 DA      0.0000
   1268 H2'        0.6926    -6.3294  1580.0010 H        487 DA      0.0000
   1269 H2''       2.2484    -5.6295  1580.5273 H        487 DA      0.0000
   1270 H1'       -0.4879    -4.8624  1581.2235 H        487 DA      0.0000
   1271 H8         3.2767    -4.0215  1581.1837 H        487 DA      0.0000
   1272 H2        -2.2011    -0.6320  1581.3946 H        487 DA      0.0000
   1273 H61        1.6479     1.8708  1581.0581 H        487 DA      0.0000
   1274 H62        2.7465     0.7784  1580.2564 H        487 DA      0.0000
   1275 P         -0.3443    -8.7381  1580.5946 P.3      486 DA      0.0000
   1276 OP1       -1.3553    -9.8014  1581.1145 O.co2    486 DA      0.0000
   1277 OP2        0.6197    -9.3995  1579.6609 O.co2    486 DA      0.0000
   1278 O5'       -1.2244    -7.5320  1580.0919 O.3      486 DA      0.0000
   1279 C5'       -2.5862    -7.3944  1580.5478 C.3      486 DA      0.0000
   1280 C4'       -3.1670    -6.1862  1579.8458 C.3      486 DA      0.0000
   1281 O4'       -2.2814    -5.1097  1579.7251 O.3      486 DA      0.0000
   1282 C3'       -3.6798    -6.4875  1578.4383 C.3      486 DA      0.0000
   1283 O3'       -5.1114    -6.3338  1578.4069 O.3      486 DA      0.0000
   1284 C2'       -2.8318    -5.5865  1577.5388 C.3      486 DA      0.0000
   1285 C1'       -2.4796    -4.4394  1578.4365 C.3      486 DA      0.0000
   1286 N9        -1.2366    -3.7361  1578.1369 N.ar     486 DA      0.0000
   1287 C8         0.0303    -4.2463  1577.9422 C.ar     486 DA      0.0000
   1288 N7         0.9465    -3.3267  1577.7368 N.ar     486 DA      0.0000
   1289 C5         0.2519    -2.1351  1577.8113 C.ar     486 DA      0.0000
   1290 C6         0.6670    -0.7911  1577.6778 C.ar     486 DA      0.0000
   1291 N6         1.9216    -0.4243  1577.4346 N.pl3    486 DA      0.0000
   1292 N1        -0.3253     0.1443  1577.8266 N.ar     486 DA      0.0000
   1293 C2        -1.6036    -0.1970  1578.0792 C.ar     486 DA      0.0000
   1294 N3        -2.0679    -1.4425  1578.2180 N.ar     486 DA      0.0000
   1295 C4        -1.0879    -2.3618  1578.0708 C.ar     486 DA      0.0000
   1296 H5'       -3.1582    -8.2864  1580.2926 H        486 DA      0.0000
   1297 H5''      -2.6022    -7.2396  1581.6266 H        486 DA      0.0000
   1298 H4'       -4.0171    -5.8440  1580.4360 H        486 DA      0.0000
   1299 H3'       -3.4426    -7.5250  1578.2033 H        486 DA      0.0000
   1300 H2'       -1.9358    -6.1059  1577.1989 H        486 DA      0.0000
   1301 H2''      -3.4168    -5.2386  1576.6874 H        486 DA      0.0000
   1302 H1'       -3.3096    -3.7354  1578.4976 H        486 DA      0.0000
   1303 H8         0.2490    -5.3039  1577.9572 H        486 DA      0.0000
   1304 H2        -2.3171     0.6077  1578.1782 H        486 DA      0.0000
   1305 H61        2.1624     0.5115  1577.7286 H        486 DA      0.0000
   1306 H62        2.5873    -1.0383  1576.9873 H        486 DA      0.0000
   1307 P         -5.8926    -6.5858  1577.0219 P.3      485 DT      0.0000
   1308 OP1       -7.3820    -6.7330  1577.0800 O.co2    485 DT      0.0000
   1309 OP2       -5.1504    -7.7779  1576.5093 O.co2    485 DT      0.0000
   1310 O5'       -5.5969    -5.1039  1576.3188 O.3      485 DT      0.0000
   1311 C5'       -5.7468    -4.0630  1577.3311 C.3      485 DT      0.0000
   1312 C4'       -6.0240    -2.7620  1576.6481 C.3      485 DT      0.0000
   1313 O4'       -4.8864    -1.9727  1576.4677 O.3      485 DT      0.0000
   1314 C3'       -6.6875    -2.9027  1575.2869 C.3      485 DT      0.0000
   1315 O3'       -7.6487    -1.8742  1575.0196 O.3      485 DT      0.0000
   1316 C2'       -5.4404    -2.8783  1574.3935 C.3      485 DT      0.0000
   1317 C1'       -4.6266    -1.7740  1575.0335 C.3      485 DT      0.0000
   1318 N1        -3.1830    -1.9712  1574.8036 N.am     485 DT      0.0000
   1319 C2        -2.3949    -0.8403  1574.6820 C.2      485 DT      0.0000
   1320 O2        -2.8892     0.2876  1574.7187 O.2      485 DT      0.0000
   1321 N3        -1.0475    -1.0117  1574.5146 N.am     485 DT      0.0000
   1322 C4        -0.4801    -2.2468  1574.4660 C.2      485 DT      0.0000
   1323 O4         0.7718    -2.3118  1574.2805 O.2      485 DT      0.0000
   1324 C5        -1.3057    -3.3963  1574.6144 C.2      485 DT      0.0000
   1325 C7        -0.7107    -4.7834  1574.5623 C.3      485 DT      0.0000
   1326 C6        -2.6187    -3.2120  1574.7874 C.2      485 DT      0.0000
   1327 H5'       -6.5758    -4.3130  1577.9932 H        485 DT      0.0000
   1328 H5''      -4.8274    -3.9825  1577.9111 H        485 DT      0.0000
   1329 H4'       -6.7085    -2.2019  1577.2852 H        485 DT      0.0000
   1330 H3'       -7.1683    -3.8783  1575.2149 H        485 DT      0.0000
   1331 H2'       -4.9111    -3.8307  1574.4241 H        485 DT      0.0000
   1332 H2''      -5.7054    -2.6175  1573.3689 H        485 DT      0.0000
   1333 H1'       -4.9546    -0.7896  1574.6996 H        485 DT      0.0000
   1334 H3        -0.4572    -0.1971  1574.4244 H        485 DT      0.0000
   1335 H6        -3.2538    -4.0756  1574.9188 H        485 DT      0.0000
   1336 H71       -0.8226    -5.1897  1573.5571 H        485 DT      0.0000
   1337 H72       -1.2278    -5.4272  1575.2739 H        485 DT      0.0000
   1338 H73        0.3475    -4.7347  1574.8188 H        485 DT      0.0000
   1339 P         -8.3222    -1.9054  1573.5297 P.3      484 DT      0.0000
   1340 OP1       -9.8105    -2.2273  1573.6777 O.co2    484 DT      0.0000
   1341 OP2       -7.6212    -3.0524  1572.8598 O.co2    484 DT      0.0000
   1342 O5'       -8.0838    -0.5196  1572.8776 O.3      484 DT      0.0000
   1343 C5'       -7.9771     0.6896  1573.6290 C.3      484 DT      0.0000
   1344 C4'       -7.0866     1.6291  1572.8810 C.3      484 DT      0.0000
   1345 O4'       -5.7144     1.3468  1572.8240 O.3      484 DT      0.0000
   1346 C3'       -7.4546     1.9445  1571.4150 C.3      484 DT      0.0000
   1347 O3'       -7.0518     3.3134  1571.3112 O.3      484 DT      0.0000
   1348 C2'       -6.5105     1.0065  1570.6512 C.3      484 DT      0.0000
   1349 C1'       -5.2518     1.3371  1571.4270 C.3      484 DT      0.0000
   1350 N1        -4.1609     0.3640  1571.3208 N.am     484 DT      0.0000
   1351 C2        -2.8692     0.9074  1571.3202 C.2      484 DT      0.0000
   1352 O2        -2.6919     2.1266  1571.3632 O.2      484 DT      0.0000
   1353 N3        -1.8258     0.0286  1571.2667 N.am     484 DT      0.0000
   1354 C4        -2.0009    -1.3221  1571.2070 C.2      484 DT      0.0000
   1355 O4        -0.9678    -2.0543  1571.1446 O.2      484 DT      0.0000
   1356 C5        -3.3221    -1.8466  1571.2152 C.2      484 DT      0.0000
   1357 C7        -3.5313    -3.3452  1571.1538 C.3      484 DT      0.0000
   1358 C6        -4.3398    -0.9832  1571.2817 C.2      484 DT      0.0000
   1359 H5'       -8.9640     1.1359  1573.7512 H        484 DT      0.0000
   1360 H5''      -7.5469     0.4768  1574.6076 H        484 DT      0.0000
   1361 H4'       -7.1633     2.5801  1573.4083 H        484 DT      0.0000
   1362 H3'       -8.5079     1.7822  1571.1863 H        484 DT      0.0000
   1363 H2'       -6.4295     1.2660  1569.5957 H        484 DT      0.0000
   1364 H2''      -6.7955    -0.0373  1570.7828 H        484 DT      0.0000
   1365 H1'       -4.8935     2.3280  1571.1479 H        484 DT      0.0000
   1366 H3        -0.8845     0.3945  1571.2716 H        484 DT      0.0000
   1367 H6        -5.3471    -1.3720  1571.3054 H        484 DT      0.0000
   1368 H71       -2.5644    -3.8459  1571.1050 H        484 DT      0.0000
   1369 H72       -4.1144    -3.5944  1570.2672 H        484 DT      0.0000
   1370 H73       -4.0662    -3.6743  1572.0447 H        484 DT      0.0000
   1371 P         -7.3983     4.3016  1570.1650 P.3      483 DC      0.0000
   1372 OP1       -7.9090     5.6087  1570.7741 O.co2    483 DC      0.0000
   1373 OP2       -8.4949     3.6492  1569.3831 O.co2    483 DC      0.0000
   1374 O5'       -5.9536     4.4440  1569.4256 O.3      483 DC      0.0000
   1375 C5'       -4.9657     5.2480  1570.1501 C.3      483 DC      0.0000
   1376 C4'       -4.1424     5.9470  1569.0996 C.3      483 DC      0.0000
   1377 O4'       -2.9209     5.2897  1568.8543 O.3      483 DC      0.0000
   1378 C3'       -4.8172     6.0972  1567.7351 C.3      483 DC      0.0000
   1379 O3'       -4.4694     7.2883  1567.0259 O.3      483 DC      0.0000
   1380 C2'       -4.3638     4.8012  1567.0490 C.3      483 DC      0.0000
   1381 C1'       -2.9494     4.6171  1567.5956 C.3      483 DC      0.0000
   1382 N1        -2.6914     3.1627  1567.7134 N.am     483 DC      0.0000
   1383 C2        -1.3583     2.7551  1567.7307 C.2      483 DC      0.0000
   1384 O2        -0.4358     3.5788  1567.6620 O.2      483 DC      0.0000
   1385 N3        -1.1152     1.4120  1567.8339 N.2      483 DC      0.0000
   1386 C4        -2.1194     0.4996  1567.9046 C.2      483 DC      0.0000
   1387 N4        -1.8315    -0.7999  1568.0066 N.pl3    483 DC      0.0000
   1388 C5        -3.4714     0.9424  1567.8795 C.2      483 DC      0.0000
   1389 C6        -3.7092     2.2619  1567.7859 C.2      483 DC      0.0000
   1390 H5'       -5.4659     5.9784  1570.7861 H        483 DC      0.0000
   1391 H5''      -4.3289     4.6014  1570.7540 H        483 DC      0.0000
   1392 H4'       -3.9132     6.9468  1569.4683 H        483 DC      0.0000
   1393 H3'       -5.8985     6.0676  1567.8693 H        483 DC      0.0000
   1394 H2'       -4.3560     4.9114  1565.9646 H        483 DC      0.0000
   1395 H2''      -5.0007     3.9676  1567.3450 H        483 DC      0.0000
   1396 H1'       -2.2267     5.0690  1566.9162 H        483 DC      0.0000
   1397 H5        -4.2863     0.2357  1567.9343 H        483 DC      0.0000
   1398 H6        -4.7298     2.6150  1567.7678 H        483 DC      0.0000
   1399 H41       -0.8685    -1.1037  1568.0273 H        483 DC      0.0000
   1400 H42       -2.5767    -1.4793  1568.0629 H        483 DC      0.0000
   1401 P         -4.2748     7.4180  1565.3939 P.3      482 DA      0.0000
   1402 OP1       -4.4824     8.8656  1565.0044 O.co2    482 DA      0.0000
   1403 OP2       -5.2693     6.4689  1564.8238 O.co2    482 DA      0.0000
   1404 O5'       -2.7243     7.0758  1565.2283 O.3      482 DA      0.0000
   1405 C5'       -1.7408     8.0798  1565.6938 C.3      482 DA      0.0000
   1406 C4'       -0.5405     7.7676  1564.8165 C.3      482 DA      0.0000
   1407 O4'       -0.0783     6.4374  1565.0838 O.3      482 DA      0.0000
   1408 C3'       -0.8653     7.7704  1563.3121 C.3      482 DA      0.0000
   1409 O3'        0.3108     7.8527  1562.5230 O.3      482 DA      0.0000
   1410 C2'       -1.3797     6.3312  1563.1246 C.3      482 DA      0.0000
   1411 C1'       -0.1951     5.6683  1563.8793 C.3      482 DA      0.0000
   1412 N9        -0.5909     4.2712  1564.0247 N.ar     482 DA      0.0000
   1413 C8        -1.8784     3.7885  1564.0975 C.ar     482 DA      0.0000
   1414 N7        -1.9391     2.4855  1564.2122 N.ar     482 DA      0.0000
   1415 C5        -0.5892     2.0909  1564.2058 C.ar     482 DA      0.0000
   1416 C6         0.0058     0.8033  1564.3057 C.ar     482 DA      0.0000
   1417 N6        -0.6912    -0.3300  1564.4286 N.pl3    482 DA      0.0000
   1418 N1         1.3678     0.8084  1564.2706 N.ar     482 DA      0.0000
   1419 C2         2.0756     1.9583  1564.1517 C.ar     482 DA      0.0000
   1420 N3         1.5833     3.1971  1564.0602 N.ar     482 DA      0.0000
   1421 C4         0.2392     3.1795  1564.0878 C.ar     482 DA      0.0000
   1422 H5'       -2.1009     9.0950  1565.5270 H        482 DA      0.0000
   1423 H5''      -1.5001     7.9244  1566.7454 H        482 DA      0.0000
   1424 H4'        0.2580     8.4810  1565.0204 H        482 DA      0.0000
   1425 H3'       -1.6074     8.5218  1563.0424 H        482 DA      0.0000
   1426 H2'       -2.3419     6.1571  1563.6062 H        482 DA      0.0000
   1427 H2''      -1.3983     6.0442  1562.0732 H        482 DA      0.0000
   1428 H1'        0.7193     5.7440  1563.2908 H        482 DA      0.0000
   1429 H8        -2.7523     4.4223  1564.0635 H        482 DA      0.0000
   1430 H2         3.1511     1.8631  1564.1285 H        482 DA      0.0000
   1431 H61       -1.7004    -0.3020  1564.4533 H        482 DA      0.0000
   1432 H62       -0.2087    -1.2147  1564.4967 H        482 DA      0.0000
   1433 P          0.4479     8.9487  1561.3821 P.3      481 DC      0.0000
   1434 OP1        0.9091    10.1685  1562.1624 O.co2    481 DC      0.0000
   1435 OP2       -0.8079     9.1705  1560.6565 O.co2    481 DC      0.0000
   1436 O5'        1.5609     8.2322  1560.4062 O.3      481 DC      0.0000
   1437 C5'        2.7992     7.7786  1561.0753 C.3      481 DC      0.0000
   1438 C4'        3.2469     6.4931  1560.4312 C.3      481 DC      0.0000
   1439 O4'        2.7416     5.3261  1561.0684 O.3      481 DC      0.0000
   1440 C3'        2.8330     6.3882  1558.9534 C.3      481 DC      0.0000
   1441 O3'        3.7630     5.6815  1558.1421 O.3      481 DC      0.0000
   1442 C2'        1.5400     5.5243  1559.1191 C.3      481 DC      0.0000
   1443 C1'        2.2730     4.4588  1560.0146 C.3      481 DC      0.0000
   1444 N1         1.3354     3.3927  1560.2525 N.am     481 DC      0.0000
   1445 C2         1.8290     2.1376  1560.5697 C.2      481 DC      0.0000
   1446 O2         2.9979     1.7610  1560.7101 O.2      481 DC      0.0000
   1447 N3         0.9304     1.1262  1560.7679 N.2      481 DC      0.0000
   1448 C4        -0.4183     1.3222  1560.6519 C.2      481 DC      0.0000
   1449 N4        -1.2628     0.3016  1560.8680 N.pl3    481 DC      0.0000
   1450 C5        -0.9097     2.6155  1560.3223 C.2      481 DC      0.0000
   1451 C6        -0.0112     3.5884  1560.1306 C.2      481 DC      0.0000
   1452 H5'        3.5756     8.5355  1560.9638 H        481 DC      0.0000
   1453 H5''       2.6025     7.6089  1562.1339 H        481 DC      0.0000
   1454 H4'        4.3353     6.4560  1560.4780 H        481 DC      0.0000
   1455 H3'        2.6049     7.3682  1558.5344 H        481 DC      0.0000
   1456 H2'        0.7339     6.0448  1559.6362 H        481 DC      0.0000
   1457 H2''       1.2089     5.1007  1558.1708 H        481 DC      0.0000
   1458 H1'        3.1307     4.0643  1559.4697 H        481 DC      0.0000
   1459 H5        -1.9689     2.8054  1560.2301 H        481 DC      0.0000
   1460 H6        -0.3669     4.5736  1559.8673 H        481 DC      0.0000
   1461 H41       -0.9016    -0.6104  1561.1085 H        481 DC      0.0000
   1462 H42       -2.2594     0.4455  1560.7901 H        481 DC      0.0000
   1463 P         -0.0338   -10.0190  1594.7413 P.3      491 DG      0.0000
   1464 OP1       -0.7438   -11.3219  1594.7397 O.co2    491 DG      0.0000
   1465 OP2       -0.7214    -9.1410  1595.7970 O.co2    491 DG      0.0000
   1466 O5'        1.5467   -10.0619  1594.9197 O.3      491 DG      0.0000
   1467 C5'        2.5778    -9.9204  1593.9197 C.3      491 DG      0.0000
   1468 C4'        3.5815    -8.9018  1594.4185 C.3      491 DG      0.0000
   1469 O4'        3.2621    -7.5927  1593.9993 O.3      491 DG      0.0000
   1470 C3'        3.8350    -8.8285  1595.9107 C.3      491 DG      0.0000
   1471 O3'        5.2475    -8.9657  1596.2227 O.3      491 DG      0.0000
   1472 C2'        3.2540    -7.4923  1596.3326 C.3      491 DG      0.0000
   1473 C1'        3.3356    -6.6584  1595.0769 C.3      491 DG      0.0000
   1474 N9         2.2336    -5.6796  1595.0478 N.ar     491 DG      0.0000
   1475 C8         0.8914    -5.8706  1595.2767 C.ar     491 DG      0.0000
   1476 N7         0.1706    -4.7757  1595.1870 N.ar     491 DG      0.0000
   1477 C5         1.1026    -3.7908  1594.8700 C.ar     491 DG      0.0000
   1478 C6         0.9651    -2.3990  1594.6441 C.2      491 DG      0.0000
   1479 O6        -0.0627    -1.7211  1594.6654 O.2      491 DG      0.0000
   1480 N1         2.1287    -1.7370  1594.3626 N.am     491 DG      0.0000
   1481 C2         3.2796    -2.3266  1594.3019 C.2      491 DG      0.0000
   1482 N2         4.1952    -1.4882  1594.0052 N.pl3    491 DG      0.0000
   1483 N3         3.5169    -3.6889  1594.5107 N.2      491 DG      0.0000
   1484 C4         2.3720    -4.3311  1594.7832 C.ar     491 DG      0.0000
   1485 H5'        3.0723   -10.8788  1593.7610 H        491 DG      0.0000
   1486 H5''       2.1377    -9.5748  1592.9843 H        491 DG      0.0000
   1487 H4'        4.5351    -9.1525  1593.9538 H        491 DG      0.0000
   1488 H3'        3.2827    -9.6280  1596.4046 H        491 DG      0.0000
   1489 H2'        2.2202    -7.6032  1596.6595 H        491 DG      0.0000
   1490 H2''       3.8576    -7.0481  1597.1240 H        491 DG      0.0000
   1491 H1'        4.2916    -6.1356  1595.0450 H        491 DG      0.0000
   1492 H8         0.4668    -6.8359  1595.5098 H        491 DG      0.0000
   1493 H1         2.0879    -0.7419  1594.1942 H        491 DG      0.0000
   1494 H21        3.9623    -0.5161  1593.8608 H        491 DG      0.0000
   1495 H22        5.1526    -1.7969  1593.9147 H        491 DG      0.0000
   1496 P          5.8400    -8.6483  1597.6512 P.3      492 DT      0.0000
   1497 OP1        6.8939    -9.5959  1598.1629 O.co2    492 DT      0.0000
   1498 OP2        4.6265    -8.8799  1598.5699 O.co2    492 DT      0.0000
   1499 O5'        6.2199    -7.1457  1597.6798 O.3      492 DT      0.0000
   1500 C5'        7.5859    -6.6687  1597.5358 C.3      492 DT      0.0000
   1501 C4'        7.4714    -5.1598  1597.5933 C.3      492 DT      0.0000
   1502 O4'        6.1616    -4.7138  1597.3182 O.3      492 DT      0.0000
   1503 C3'        7.8286    -4.5097  1598.9060 C.3      492 DT      0.0000
   1504 O3'        8.9973    -3.6983  1598.7178 O.3      492 DT      0.0000
   1505 C2'        6.6159    -3.6659  1599.2983 C.3      492 DT      0.0000
   1506 C1'        6.0050    -3.4077  1597.9455 C.3      492 DT      0.0000
   1507 N1         4.5701    -3.1388  1598.0421 N.am     492 DT      0.0000
   1508 C2         4.1557    -1.8496  1597.8442 C.2      492 DT      0.0000
   1509 O2         4.9396    -0.9337  1597.6060 O.2      492 DT      0.0000
   1510 N3         2.8107    -1.6077  1597.9253 N.am     492 DT      0.0000
   1511 C4         1.9036    -2.5774  1598.1812 C.2      492 DT      0.0000
   1512 O4         0.7026    -2.2029  1598.2265 O.2      492 DT      0.0000
   1513 C5         2.3558    -3.9213  1598.3809 C.2      492 DT      0.0000
   1514 C7         1.3857    -5.0227  1598.6608 C.3      492 DT      0.0000
   1515 C6         3.6730    -4.1487  1598.2994 C.2      492 DT      0.0000
   1516 H5'        8.2102    -7.0384  1598.3492 H        492 DT      0.0000
   1517 H5''       7.9951    -6.9799  1596.5746 H        492 DT      0.0000
   1518 H4'        8.1298    -4.7475  1596.8288 H        492 DT      0.0000
   1519 H3'        8.0175    -5.2707  1599.6631 H        492 DT      0.0000
   1520 H2'        5.9358    -4.2179  1599.9471 H        492 DT      0.0000
   1521 H2''       6.9280    -2.7329  1599.7675 H        492 DT      0.0000
   1522 H1'        6.5327    -2.6252  1597.4002 H        492 DT      0.0000
   1523 H3         2.4813    -0.6629  1597.7878 H        492 DT      0.0000
   1524 H6         4.0413    -5.1543  1598.4398 H        492 DT      0.0000
   1525 H71        1.2296    -5.6089  1597.7552 H        492 DT      0.0000
   1526 H72        0.4365    -4.5965  1598.9855 H        492 DT      0.0000
   1527 H73        1.7829    -5.6659  1599.4461 H        492 DT      0.0000
   1528 P         10.0009    -3.7211  1599.9978 P.3      493 DG      0.0000
   1529 OP1       11.3452    -3.6736  1599.2827 O.co2    493 DG      0.0000
   1530 OP2        9.7749    -4.9415  1600.7513 O.co2    493 DG      0.0000
   1531 O5'        9.5206    -2.2851  1600.6073 O.3      493 DG      0.0000
   1532 C5'        9.4469    -1.2909  1599.5167 C.3      493 DG      0.0000
   1533 C4'        8.6963    -0.1004  1600.0367 C.3      493 DG      0.0000
   1534 O4'        7.3054    -0.1089  1599.8562 O.3      493 DG      0.0000
   1535 C3'        8.9473     0.1451  1601.5448 C.3      493 DG      0.0000
   1536 O3'        9.4007     1.5113  1601.7036 O.3      493 DG      0.0000
   1537 C2'        7.6273    -0.2062  1602.1973 C.3      493 DG      0.0000
   1538 C1'        6.6302     0.1930  1601.1158 C.3      493 DG      0.0000
   1539 N9         5.3506    -0.5044  1601.2853 N.ar     493 DG      0.0000
   1540 C8         5.1263    -1.8110  1601.6215 C.ar     493 DG      0.0000
   1541 N7         3.8574    -2.1448  1601.7073 N.ar     493 DG      0.0000
   1542 C5         3.2006    -0.9614  1601.3773 C.ar     493 DG      0.0000
   1543 C6         1.8113    -0.6623  1601.2829 C.2      493 DG      0.0000
   1544 O6         0.8496    -1.4210  1601.4752 O.2      493 DG      0.0000
   1545 N1         1.5322     0.6429  1600.9479 N.am     493 DG      0.0000
   1546 C2         2.5172     1.5558  1600.7241 C.2      493 DG      0.0000
   1547 N2         2.0607     2.7767  1600.4153 N.pl3    493 DG      0.0000
   1548 N3         3.8261     1.3249  1600.7951 N.2      493 DG      0.0000
   1549 C4         4.1011     0.0504  1601.1217 C.ar     493 DG      0.0000
   1550 H5'       10.4517    -0.9941  1599.2162 H        493 DG      0.0000
   1551 H5''       8.9177    -1.7169  1598.6643 H        493 DG      0.0000
   1552 H4'        9.0789     0.7715  1599.5062 H        493 DG      0.0000
   1553 H3'        9.7200    -0.5369  1601.8995 H        493 DG      0.0000
   1554 H2'        7.5658    -1.2713  1602.4203 H        493 DG      0.0000
   1555 H2''       7.4741     0.3857  1603.0998 H        493 DG      0.0000
   1556 H1'        6.4570     1.2675  1601.1747 H        493 DG      0.0000
   1557 H8         5.9273    -2.5125  1601.8022 H        493 DG      0.0000
   1558 H1         0.5680     0.9322  1600.8655 H        493 DG      0.0000
   1559 H21        1.0663     2.9463  1600.3651 H        493 DG      0.0000
   1560 H22        2.7109     3.5277  1600.2326 H        493 DG      0.0000
   1561 P          9.8577     2.0655  1603.0920 P.3      494 DA      0.0000
   1562 OP1       11.2986     1.8901  1603.4474 O.co2    494 DA      0.0000
   1563 OP2        9.0248     1.0767  1603.9878 O.co2    494 DA      0.0000
   1564 O5'        9.1738     3.4744  1603.3412 O.3      494 DA      0.0000
   1565 C5'        8.6810     4.3450  1602.3121 C.3      494 DA      0.0000
   1566 C4'        7.3065     4.7884  1602.7864 C.3      494 DA      0.0000
   1567 O4'        6.3873     3.7210  1602.6961 O.3      494 DA      0.0000
   1568 C3'        7.2246     5.3252  1604.2155 C.3      494 DA      0.0000
   1569 O3'        6.4769     6.5578  1604.2678 O.3      494 DA      0.0000
   1570 C2'        6.5309     4.1721  1604.9509 C.3      494 DA      0.0000
   1571 C1'        5.5400     3.7589  1603.8733 C.3      494 DA      0.0000
   1572 N9         4.9324     2.4440  1604.1018 N.ar     494 DA      0.0000
   1573 C8         5.5210     1.2303  1604.3175 C.ar     494 DA      0.0000
   1574 N7         4.6662     0.2454  1604.4825 N.ar     494 DA      0.0000
   1575 C5         3.4275     0.8532  1604.3423 C.ar     494 DA      0.0000
   1576 C6         2.1173     0.3290  1604.3902 C.ar     494 DA      0.0000
   1577 N6         1.8255    -0.9551  1604.6100 N.pl3    494 DA      0.0000
   1578 N1         1.1178     1.2410  1604.2004 N.ar     494 DA      0.0000
   1579 C2         1.3915     2.5481  1603.9827 C.ar     494 DA      0.0000
   1580 N3         2.5974     3.1118  1603.9244 N.ar     494 DA      0.0000
   1581 C4         3.5688     2.1998  1604.1113 C.ar     494 DA      0.0000
   1582 H5'        8.6041     3.8111  1601.3649 H        494 DA      0.0000
   1583 H5''       9.3376     5.2084  1602.2043 H        494 DA      0.0000
   1584 H4'        6.9641     5.5773  1602.1166 H        494 DA      0.0000
   1585 H3'        8.2266     5.4771  1604.6169 H        494 DA      0.0000
   1586 H2'        7.2252     3.3685  1605.1964 H        494 DA      0.0000
   1587 H2''       6.0147     4.5297  1605.8418 H        494 DA      0.0000
   1588 H1'        4.7666     4.5184  1603.7588 H        494 DA      0.0000
   1589 H8         6.5917     1.0924  1604.3496 H        494 DA      0.0000
   1590 H2         0.5441     3.2027  1603.8413 H        494 DA      0.0000
   1591 H61        2.4762    -1.7215  1604.5126 H        494 DA      0.0000
   1592 H62        0.8806    -1.2680  1604.4385 H        494 DA      0.0000
   1593 P          6.7539     7.7061  1605.4092 P.3      495 DA      0.0000
   1594 OP1        7.1938     8.9856  1604.7422 O.co2    495 DA      0.0000
   1595 OP2        7.7779     7.0406  1606.2401 O.co2    495 DA      0.0000
   1596 O5'        5.2837     8.0253  1605.9401 O.3      495 DA      0.0000
   1597 C5'        4.2434     8.5480  1605.1157 C.3      495 DA      0.0000
   1598 C4'        2.9180     8.0220  1605.6380 C.3      495 DA      0.0000
   1599 O4'        2.9029     6.6227  1605.6662 O.3      495 DA      0.0000
   1600 C3'        2.4639     8.5029  1607.0053 C.3      495 DA      0.0000
   1601 O3'        1.2563     9.2601  1606.9275 O.3      495 DA      0.0000
   1602 C2'        2.3738     7.2155  1607.8341 C.3      495 DA      0.0000
   1603 C1'        2.1741     6.1380  1606.8403 C.3      495 DA      0.0000
   1604 N9         2.6676     4.7750  1607.1083 N.ar     495 DA      0.0000
   1605 C8         3.9544     4.3080  1607.2235 C.ar     495 DA      0.0000
   1606 N7         4.0413     3.0099  1607.3928 N.ar     495 DA      0.0000
   1607 C5         2.7182     2.5815  1607.3558 C.ar     495 DA      0.0000
   1608 C6         2.1376     1.2868  1607.4763 C.ar     495 DA      0.0000
   1609 N6         2.8073     0.1571  1607.6679 N.pl3    495 DA      0.0000
   1610 N1         0.7695     1.2392  1607.3781 N.ar     495 DA      0.0000
   1611 C2         0.0462     2.3809  1607.1890 C.ar     495 DA      0.0000
   1612 N3         0.5227     3.6159  1607.0811 N.ar     495 DA      0.0000
   1613 C4         1.8674     3.6469  1607.1730 C.ar     495 DA      0.0000
   1614 H5'        4.3896     8.2228  1604.0857 H        495 DA      0.0000
   1615 H5''       4.2502     9.6371  1605.1617 H        495 DA      0.0000
   1616 H4'        2.1534     8.3310  1604.9253 H        495 DA      0.0000
   1617 H3'        3.2443     9.1352  1607.4285 H        495 DA      0.0000
   1618 H2'        3.2949     7.0547  1608.3944 H        495 DA      0.0000
   1619 H2''       1.5230     7.2637  1608.5137 H        495 DA      0.0000
   1620 H1'        1.1137     6.0828  1606.5942 H        495 DA      0.0000
   1621 H8         4.8193     4.9533  1607.1787 H        495 DA      0.0000
   1622 H2        -1.0257     2.2683  1607.1198 H        495 DA      0.0000
   1623 H61        3.7631     0.1459  1607.9941 H        495 DA      0.0000
   1624 H62        2.3453    -0.7214  1607.4811 H        495 DA      0.0000
   1625 P          0.8648    10.5157  1607.8837 P.3      496 DT      0.0000
   1626 OP1        0.2291    11.6490  1607.0864 O.co2    496 DT      0.0000
   1627 OP2        1.9924    10.9049  1608.7043 O.co2    496 DT      0.0000
   1628 O5'       -0.4334     9.9176  1608.6974 O.3      496 DT      0.0000
   1629 C5'       -1.2809     9.1346  1607.7523 C.3      496 DT      0.0000
   1630 C4'       -1.6897     7.9159  1608.5401 C.3      496 DT      0.0000
   1631 O4'       -0.6449     6.9888  1608.7320 O.3      496 DT      0.0000
   1632 C3'       -2.1755     8.2745  1609.9566 C.3      496 DT      0.0000
   1633 O3'       -3.5901     8.3266  1609.9583 O.3      496 DT      0.0000
   1634 C2'       -1.5719     7.1968  1610.8539 C.3      496 DT      0.0000
   1635 C1'       -1.1222     6.1734  1609.8893 C.3      496 DT      0.0000
   1636 N1        -0.0425     5.2603  1610.2290 N.am     496 DT      0.0000
   1637 C2        -0.3759     3.9165  1610.3670 C.2      496 DT      0.0000
   1638 O2        -1.5461     3.5675  1610.2789 O.2      496 DT      0.0000
   1639 N3         0.6245     3.0275  1610.6210 N.am     496 DT      0.0000
   1640 C4         1.9320     3.4029  1610.7411 C.2      496 DT      0.0000
   1641 O4         2.8064     2.5145  1610.9963 O.2      496 DT      0.0000
   1642 C5         2.2545     4.7894  1610.5695 C.2      496 DT      0.0000
   1643 C7         3.6823     5.2525  1610.6571 C.3      496 DT      0.0000
   1644 C6         1.2643     5.6617  1610.3138 C.2      496 DT      0.0000
   1645 H5'       -2.1558     9.7106  1607.4507 H        496 DT      0.0000
   1646 H5''      -0.7005     8.8422  1606.8773 H        496 DT      0.0000
   1647 H4'       -2.5022     7.4177  1608.0109 H        496 DT      0.0000
   1648 H3'       -1.7765     9.2481  1610.2410 H        496 DT      0.0000
   1649 H2'       -0.7324     7.5900  1611.4273 H        496 DT      0.0000
   1650 H2''      -2.3304     6.7861  1611.5203 H        496 DT      0.0000
   1651 H1'       -1.9861     5.5894  1609.5720 H        496 DT      0.0000
   1652 H3         0.3896     2.0507  1610.7247 H        496 DT      0.0000
   1653 H6         1.5050     6.7049  1610.1716 H        496 DT      0.0000
   1654 H71        4.3286     4.4011  1610.8701 H        496 DT      0.0000
   1655 H72        3.9764     5.7034  1609.7093 H        496 DT      0.0000
   1656 H73        3.7771     5.9892  1611.4549 H        496 DT      0.0000
   1657 P         -4.5481     8.8437  1611.0649 P.3      497 DT      0.0000
   1658 OP1       -5.9167     9.2396  1610.4529 O.co2    497 DT      0.0000
   1659 OP2       -3.8689    10.0052  1611.6949 O.co2    497 DT      0.0000
   1660 O5'       -4.8798     7.5463  1611.9473 O.3      497 DT      0.0000
   1661 C5'       -5.7106     6.5903  1611.2355 C.3      497 DT      0.0000
   1662 C4'       -5.6030     5.2677  1611.9117 C.3      497 DT      0.0000
   1663 O4'       -4.2926     4.7155  1611.8883 O.3      497 DT      0.0000
   1664 C3'       -6.0576     5.2664  1613.3783 C.3      497 DT      0.0000
   1665 O3'       -6.8532     4.1264  1613.6423 O.3      497 DT      0.0000
   1666 C2'       -4.7026     5.1412  1614.1146 C.3      497 DT      0.0000
   1667 C1'       -4.0815     4.0955  1613.2111 C.3      497 DT      0.0000
   1668 N1        -2.6722     3.9183  1613.5088 N.am     497 DT      0.0000
   1669 C2        -2.1652     2.6301  1613.5636 C.2      497 DT      0.0000
   1670 O2        -2.9275     1.6809  1613.3751 O.2      497 DT      0.0000
   1671 N3        -0.8344     2.4702  1613.8295 N.am     497 DT      0.0000
   1672 C4        -0.0035     3.5282  1614.0365 C.2      497 DT      0.0000
   1673 O4         1.2204     3.3034  1614.2598 O.2      497 DT      0.0000
   1674 C5        -0.5352     4.8491  1613.9714 C.2      497 DT      0.0000
   1675 C7         0.3174     6.0664  1614.1813 C.3      497 DT      0.0000
   1676 C6        -1.8444     4.9880  1613.7103 C.2      497 DT      0.0000
   1677 H5'       -6.7478     6.9251  1611.2479 H        497 DT      0.0000
   1678 H5''      -5.3668     6.5031  1610.2048 H        497 DT      0.0000
   1679 H4'       -6.2525     4.5775  1611.3732 H        497 DT      0.0000
   1680 H3'       -6.5754     6.1889  1613.6407 H        497 DT      0.0000
   1681 H2'       -4.1421     6.0760  1614.1134 H        497 DT      0.0000
   1682 H2''      -4.8359     4.7607  1615.1273 H        497 DT      0.0000
   1683 H1'       -4.6167     3.1490  1613.2867 H        497 DT      0.0000
   1684 H3        -0.4546     1.5353  1613.8739 H        497 DT      0.0000
   1685 H6        -2.2602     5.9833  1613.6572 H        497 DT      0.0000
   1686 H71        1.3447     5.7612  1614.3803 H        497 DT      0.0000
   1687 H72        0.2901     6.6875  1613.2861 H        497 DT      0.0000
   1688 H73       -0.0634     6.6349  1615.0297 H        497 DT      0.0000
   1689 P         -8.2733     3.8499  1614.2503 P.3      498 DC      0.0000
   1690 OP1       -9.2566     3.4108  1613.1823 O.co2    498 DC      0.0000
   1691 OP2       -8.6286     5.0775  1614.9852 O.co2    498 DC      0.0000
   1692 O5'       -7.8587     2.5060  1615.0763 O.3      498 DC      0.0000
   1693 C5'       -7.2195     1.6564  1614.0540 C.3      498 DC      0.0000
   1694 C4'       -6.7384     0.4155  1614.7505 C.3      498 DC      0.0000
   1695 O4'       -5.3666     0.4360  1614.9975 O.3      498 DC      0.0000
   1696 C3'       -7.4723     0.0724  1616.0420 C.3      498 DC      0.0000
   1697 O3'       -8.0254    -1.2347  1615.9623 O.3      498 DC      0.0000
   1698 C2'       -6.3902     0.3383  1617.0908 C.3      498 DC      0.0000
   1699 C1'       -5.1161     0.0655  1616.3944 C.3      498 DC      0.0000
   1700 N1        -3.9761     0.9258  1616.7265 N.am     498 DC      0.0000
   1701 C2        -2.7735     0.2705  1616.9823 C.2      498 DC      0.0000
   1702 O2        -2.7016    -0.9622  1616.9867 O.2      498 DC      0.0000
   1703 N3        -1.6754     1.0479  1617.2561 N.2      498 DC      0.0000
   1704 C4        -1.7466     2.4099  1617.2462 C.2      498 DC      0.0000
   1705 N4        -0.6298     3.0739  1617.5230 N.pl3    498 DC      0.0000
   1706 C5        -2.9688     3.0606  1616.9682 C.2      498 DC      0.0000
   1707 C6        -4.0388     2.2831  1616.7034 C.2      498 DC      0.0000
   1708 H5'       -7.9415     1.3950  1613.2804 H        498 DC      0.0000
   1709 H5''      -6.3749     2.1831  1613.6098 H        498 DC      0.0000
   1710 H4'       -6.9166    -0.4127  1614.0646 H        498 DC      0.0000
   1711 H3'       -8.2824     0.7874  1616.1853 H        498 DC      0.0000
   1712 H2'       -6.4291     1.3738  1617.4287 H        498 DC      0.0000
   1713 H2''      -6.5101    -0.3390  1617.9363 H        498 DC      0.0000
   1714 H1'       -4.8458    -0.9873  1616.4753 H        498 DC      0.0000
   1715 H5        -3.0439     4.1380  1616.9676 H        498 DC      0.0000
   1716 H6        -4.9796     2.7565  1616.4643 H        498 DC      0.0000
   1717 H41        0.2218     2.5688  1617.7222 H        498 DC      0.0000
   1718 H42       -0.6323     4.0838  1617.5343 H        498 DC      0.0000
   1719 P         -9.1887    -1.8459  1616.9144 P.3      499 DA      0.0000
   1720 OP1       -9.8845    -2.9350  1616.1206 O.co2    499 DA      0.0000
   1721 OP2      -10.1132    -0.7469  1617.2599 O.co2    499 DA      0.0000
   1722 O5'       -8.3685    -2.4401  1618.2114 O.3      499 DA      0.0000
   1723 C5'       -7.2703    -3.3565  1617.9162 C.3      499 DA      0.0000
   1724 C4'       -6.5554    -3.7359  1619.1714 C.3      499 DA      0.0000
   1725 O4'       -5.3363    -3.0273  1619.4136 O.3      499 DA      0.0000
   1726 C3'       -7.3332    -3.4985  1620.4767 C.3      499 DA      0.0000
   1727 O3'       -6.7498    -4.2998  1621.5066 O.3      499 DA      0.0000
   1728 C2'       -7.0106    -2.0063  1620.6913 C.3      499 DA      0.0000
   1729 C1'       -5.4940    -2.1275  1620.5080 C.3      499 DA      0.0000
   1730 N9        -4.9156    -0.7978  1620.4137 N.ar     499 DA      0.0000
   1731 C8        -5.5126     0.4269  1620.2978 C.ar     499 DA      0.0000
   1732 N7        -4.6813     1.4533  1620.2792 N.ar     499 DA      0.0000
   1733 C5        -3.4349     0.8527  1620.3868 C.ar     499 DA      0.0000
   1734 C6        -2.1234     1.3874  1620.4213 C.ar     499 DA      0.0000
   1735 N6        -1.8366     2.6739  1620.3360 N.pl3    499 DA      0.0000
   1736 N1        -1.1087     0.4833  1620.5539 N.ar     499 DA      0.0000
   1737 C2        -1.3607    -0.8605  1620.6340 C.ar     499 DA      0.0000
   1738 N3        -2.5601    -1.4365  1620.6042 N.ar     499 DA      0.0000
   1739 C4        -3.5552    -0.5243  1620.4812 C.ar     499 DA      0.0000
   1740 H5'       -7.6693    -4.2548  1617.4450 H        499 DA      0.0000
   1741 H5''      -6.5703    -2.8727  1617.2349 H        499 DA      0.0000
   1742 H4'       -6.3181    -4.7981  1619.1125 H        499 DA      0.0000
   1743 H3'       -8.4018    -3.6808  1620.3630 H        499 DA      0.0000
   1744 H2'       -7.4732    -1.3657  1619.9405 H        499 DA      0.0000
   1745 H2''      -7.2654    -1.6847  1621.7012 H        499 DA      0.0000
   1746 H1'       -5.0865    -2.6075  1621.3976 H        499 DA      0.0000
   1747 H8        -6.5837     0.5462  1620.2268 H        499 DA      0.0000
   1748 H2        -0.5061    -1.5138  1620.7305 H        499 DA      0.0000
   1749 H61       -1.0086     3.2236  1620.5161 H        499 DA      0.0000
   1750 H62       -2.6179     3.2311  1620.0213 H        499 DA      0.0000
   1751 P         -7.0925    -5.8565  1621.6471 P.3      500 DC      0.0000
   1752 OP1       -7.6590    -6.4481  1620.4020 O.co2    500 DC      0.0000
   1753 OP2       -8.0661    -5.8652  1622.7899 O.co2    500 DC      0.0000
   1754 O5'       -5.6788    -6.5167  1621.9302 O.3      500 DC      0.0000
   1755 C5'       -4.7550    -6.8240  1620.8425 C.3      500 DC      0.0000
   1756 C4'       -3.3993    -6.7030  1621.5475 C.3      500 DC      0.0000
   1757 O4'       -3.2079    -5.3426  1621.8595 O.3      500 DC      0.0000
   1758 C3'       -3.3148    -7.4821  1622.8574 C.3      500 DC      0.0000
   1759 O3'       -2.1569    -8.3449  1622.9253 O.3      500 DC      0.0000
   1760 C2'       -3.3242    -6.3919  1623.9396 C.3      500 DC      0.0000
   1761 C1'       -2.6558    -5.2643  1623.2634 C.3      500 DC      0.0000
   1762 N1        -2.9538    -3.8786  1623.6162 N.am     500 DC      0.0000
   1763 C2        -1.8621    -3.0129  1623.5893 C.2      500 DC      0.0000
   1764 O2        -0.7180    -3.3973  1623.3824 O.2      500 DC      0.0000
   1765 N3        -2.1009    -1.6980  1623.8424 N.2      500 DC      0.0000
   1766 C4        -3.3456    -1.2163  1624.0758 C.2      500 DC      0.0000
   1767 N4        -3.4527     0.0908  1624.3067 N.pl3    500 DC      0.0000
   1768 C5        -4.4536    -2.1077  1624.0824 C.2      500 DC      0.0000
   1769 C6        -4.2103    -3.4037  1623.8329 C.2      500 DC      0.0000
   1770 H5'       -4.9147    -7.8312  1620.4577 H        500 DC      0.0000
   1771 H5''      -4.8414    -6.0876  1620.0435 H        500 DC      0.0000
   1772 H4'       -2.6090    -7.0361  1620.8748 H        500 DC      0.0000
   1773 H3'       -4.2131    -8.0903  1622.9633 H        500 DC      0.0000
   1774 H2'       -4.3429    -6.1309  1624.2266 H        500 DC      0.0000
   1775 H2''      -2.7508    -6.7110  1624.8098 H        500 DC      0.0000
   1776 H1'       -1.5775    -5.4229  1623.2501 H        500 DC      0.0000
   1777 H5        -5.4547    -1.7544  1624.2809 H        500 DC      0.0000
   1778 H6        -5.0407    -4.0936  1623.8032 H        500 DC      0.0000
   1779 H41       -2.6287     0.6747  1624.2957 H        500 DC      0.0000
   1780 H42       -4.3580     0.4983  1624.4929 H        500 DC      0.0000
   1781 P          3.4089     7.7734  1625.8848 P.3      500 DG      0.0000
   1782 OP1        3.9434     9.1588  1626.0635 O.co2    500 DG      0.0000
   1783 OP2        2.3440     7.6803  1624.8000 O.co2    500 DG      0.0000
   1784 O5'        4.6627     6.7273  1625.6775 O.3      500 DG      0.0000
   1785 C5'        5.0277     5.8240  1626.7733 C.3      500 DG      0.0000
   1786 C4'        5.4163     4.4905  1626.1390 C.3      500 DG      0.0000
   1787 O4'        4.3247     3.6167  1626.0432 O.3      500 DG      0.0000
   1788 C3'        5.9984     4.6057  1624.7327 C.3      500 DG      0.0000
   1789 O3'        7.0979     3.7047  1624.4657 O.3      500 DG      0.0000
   1790 C2'        4.7887     4.3023  1623.8304 C.3      500 DG      0.0000
   1791 C1'        4.0788     3.2408  1624.6542 C.3      500 DG      0.0000
   1792 N9         2.6316     3.2374  1624.3809 N.ar     500 DG      0.0000
   1793 C8         1.7985     4.3195  1624.2243 C.ar     500 DG      0.0000
   1794 N7         0.5502     4.0014  1624.0059 N.ar     500 DG      0.0000
   1795 C5         0.5553     2.6118  1624.0307 C.ar     500 DG      0.0000
   1796 C6        -0.4941     1.6673  1623.8742 C.2      500 DG      0.0000
   1797 O6        -1.6917     1.9176  1623.6774 O.2      500 DG      0.0000
   1798 N1        -0.0927     0.3570  1623.9611 N.am     500 DG      0.0000
   1799 C2         1.1961    -0.0007  1624.1818 C.2      500 DG      0.0000
   1800 N2         1.4349    -1.3077  1624.2451 N.pl3    500 DG      0.0000
   1801 N3         2.2201     0.8469  1624.3395 N.2      500 DG      0.0000
   1802 C4         1.8256     2.1323  1624.2562 C.ar     500 DG      0.0000
   1803 H5'        5.8701     6.2331  1627.3311 H        500 DG      0.0000
   1804 H5''       4.1755     5.6841  1627.4382 H        500 DG      0.0000
   1805 H4'        6.1667     4.0219  1626.7757 H        500 DG      0.0000
   1806 H3'        6.3253     5.6315  1624.5622 H        500 DG      0.0000
   1807 H2'        4.1636     5.1838  1623.6877 H        500 DG      0.0000
   1808 H2''       5.1121     3.8970  1622.8717 H        500 DG      0.0000
   1809 H1'        4.5034     2.2581  1624.4490 H        500 DG      0.0000
   1810 H8         2.1447     5.3412  1624.2770 H        500 DG      0.0000
   1811 H1        -0.7860    -0.3699  1623.8563 H        500 DG      0.0000
   1812 H21        0.6774    -1.9657  1624.1300 H        500 DG      0.0000
   1813 H22        2.3739    -1.6422  1624.4083 H        500 DG      0.0000
   1814 P          7.2534     3.2327  1622.9422 P.3      499 DT      0.0000
   1815 OP1        8.6684     2.9009  1622.5513 O.co2    499 DT      0.0000
   1816 OP2        6.7735     4.4492  1622.2417 O.co2    499 DT      0.0000
   1817 O5'        6.3274     1.9316  1622.8113 O.3      499 DT      0.0000
   1818 C5'        6.9628     0.6407  1623.0790 C.3      499 DT      0.0000
   1819 C4'        6.2076    -0.4301  1622.3219 C.3      499 DT      0.0000
   1820 O4'        4.8095    -0.2049  1622.2946 O.3      499 DT      0.0000
   1821 C3'        6.6359    -0.5461  1620.8672 C.3      499 DT      0.0000
   1822 O3'        6.6757    -1.9022  1620.3721 O.3      499 DT      0.0000
   1823 C2'        5.6012     0.2875  1620.1444 C.3      499 DT      0.0000
   1824 C1'        4.3628    -0.1255  1620.9225 C.3      499 DT      0.0000
   1825 N1         3.3848     0.9634  1620.7711 N.am     499 DT      0.0000
   1826 C2         2.0448     0.6051  1620.8779 C.2      499 DT      0.0000
   1827 O2         1.7272    -0.5642  1621.0677 O.2      499 DT      0.0000
   1828 N3         1.1201     1.6045  1620.7577 N.am     499 DT      0.0000
   1829 C4         1.4827     2.8999  1620.5402 C.2      499 DT      0.0000
   1830 O4         0.5484     3.7626  1620.4426 O.2      499 DT      0.0000
   1831 C5         2.8626     3.2361  1620.4338 C.2      499 DT      0.0000
   1832 C7         3.2741     4.6621  1620.2048 C.3      499 DT      0.0000
   1833 C6         3.7614     2.2559  1620.5556 C.2      499 DT      0.0000
   1834 H5'        8.0001     0.6650  1622.7452 H        499 DT      0.0000
   1835 H5''       6.9264     0.4288  1624.1476 H        499 DT      0.0000
   1836 H4'        6.3905    -1.3875  1622.8099 H        499 DT      0.0000
   1837 H3'        7.6174    -0.0887  1620.7432 H        499 DT      0.0000
   1838 H2'        5.8022     1.3549  1620.2359 H        499 DT      0.0000
   1839 H2''       5.5224    -0.0076  1619.0980 H        499 DT      0.0000
   1840 H1'        3.9645    -1.0776  1620.5718 H        499 DT      0.0000
   1841 H3         0.1391     1.3761  1620.8324 H        499 DT      0.0000
   1842 H6         4.8125     2.4929  1620.4814 H        499 DT      0.0000
   1843 H71        2.3862     5.2905  1620.1361 H        499 DT      0.0000
   1844 H72        3.8940     4.9990  1621.0357 H        499 DT      0.0000
   1845 H73        3.8415     4.7321  1619.2767 H        499 DT      0.0000
   1846 P          8.1287    -2.0955  1619.5937 P.3      498 DG      0.0000
   1847 OP1        9.1971    -2.6714  1620.4649 O.co2    498 DG      0.0000
   1848 OP2        8.3492    -0.6848  1619.1882 O.co2    498 DG      0.0000
   1849 O5'        7.7343    -3.2049  1618.5129 O.3      498 DG      0.0000
   1850 C5'        7.6305    -4.5880  1618.9364 C.3      498 DG      0.0000
   1851 C4'        6.2427    -5.0292  1618.4886 C.3      498 DG      0.0000
   1852 O4'        5.3079    -4.0039  1618.7593 O.3      498 DG      0.0000
   1853 C3'        6.1372    -5.3646  1617.0009 C.3      498 DG      0.0000
   1854 O3'        5.6496    -6.6779  1616.7924 O.3      498 DG      0.0000
   1855 C2'        5.2820    -4.2503  1616.4242 C.3      498 DG      0.0000
   1856 C1'        4.4526    -3.8183  1617.6103 C.3      498 DG      0.0000
   1857 N9         4.0540    -2.4136  1617.4868 N.ar     498 DG      0.0000
   1858 C8         4.8522    -1.3163  1617.3279 C.ar     498 DG      0.0000
   1859 N7         4.1891    -0.1884  1617.2498 N.ar     498 DG      0.0000
   1860 C5         2.8573    -0.5688  1617.3874 C.ar     498 DG      0.0000
   1861 C6         1.6534     0.1838  1617.3968 C.2      498 DG      0.0000
   1862 O6         1.5403     1.4014  1617.2978 O.2      498 DG      0.0000
   1863 N1         0.5184    -0.5614  1617.5458 N.am     498 DG      0.0000
   1864 C2         0.5547    -1.9284  1617.6787 C.2      498 DG      0.0000
   1865 N2        -0.6265    -2.5319  1617.8143 N.pl3    498 DG      0.0000
   1866 N3         1.6498    -2.6951  1617.6830 N.2      498 DG      0.0000
   1867 C4         2.7665    -1.9428  1617.5323 C.ar     498 DG      0.0000
   1868 H5'        8.3991    -5.1948  1618.4576 H        498 DG      0.0000
   1869 H5''       7.7165    -4.6576  1620.0207 H        498 DG      0.0000
   1870 H4'        5.9606    -5.9124  1619.0616 H        498 DG      0.0000
   1871 H3'        7.1326    -5.2948  1616.5623 H        498 DG      0.0000
   1872 H2'        5.9000    -3.4306  1616.0578 H        498 DG      0.0000
   1873 H2''       4.6421    -4.6320  1615.6286 H        498 DG      0.0000
   1874 H1'        3.5689    -4.4504  1617.6974 H        498 DG      0.0000
   1875 H8         5.9292    -1.3729  1617.2718 H        498 DG      0.0000
   1876 H1        -0.3761    -0.0925  1617.5587 H        498 DG      0.0000
   1877 H21       -1.4758    -1.9852  1617.8153 H        498 DG      0.0000
   1878 H22       -0.6720    -3.5356  1617.9161 H        498 DG      0.0000
   1879 P          4.4930    -7.3176  1615.9261 P.3      497 DA      0.0000
   1880 OP1        3.8115    -8.4480  1616.7075 O.co2    497 DA      0.0000
   1881 OP2        5.1572    -7.8482  1614.7334 O.co2    497 DA      0.0000
   1882 O5'        3.3615    -6.1586  1615.7513 O.3      497 DA      0.0000
   1883 C5'        2.4438    -6.1159  1616.9077 C.3      497 DA      0.0000
   1884 C4'        1.0703    -6.4494  1616.3799 C.3      497 DA      0.0000
   1885 O4'        0.2872    -5.3041  1616.1577 O.3      497 DA      0.0000
   1886 C3'        1.1089    -7.1821  1615.0394 C.3      497 DA      0.0000
   1887 O3'        0.1631    -8.2218  1614.9642 O.3      497 DA      0.0000
   1888 C2'        0.9869    -6.0434  1614.0429 C.3      497 DA      0.0000
   1889 C1'        0.3069    -4.9150  1614.7667 C.3      497 DA      0.0000
   1890 N9         0.9939    -3.6318  1614.5412 N.ar     497 DA      0.0000
   1891 C8         2.3378    -3.3899  1614.3548 C.ar     497 DA      0.0000
   1892 N7         2.6385    -2.1267  1614.1589 N.ar     497 DA      0.0000
   1893 C5         1.4071    -1.4895  1614.2458 C.ar     497 DA      0.0000
   1894 C6         1.0501    -0.1249  1614.1402 C.ar     497 DA      0.0000
   1895 N6         1.9185     0.8481  1613.9277 N.pl3    497 DA      0.0000
   1896 N1        -0.2760     0.1583  1614.2639 N.ar     497 DA      0.0000
   1897 C2        -1.1954    -0.8265  1614.4884 C.ar     497 DA      0.0000
   1898 N3        -0.9258    -2.1252  1614.6043 N.ar     497 DA      0.0000
   1899 C4         0.3952    -2.3943  1614.4682 C.ar     497 DA      0.0000
   1900 H5'        2.7472    -6.8484  1617.6558 H        497 DA      0.0000
   1901 H5''       2.4420    -5.1172  1617.3444 H        497 DA      0.0000
   1902 H4'        0.5623    -7.0822  1617.1076 H        497 DA      0.0000
   1903 H3'        2.0999    -7.6217  1614.9263 H        497 DA      0.0000
   1904 H2'        0.3898    -6.3552  1613.1860 H        497 DA      0.0000
   1905 H2''       1.9773    -5.7303  1613.7123 H        497 DA      0.0000
   1906 H1'       -0.7193    -4.8336  1614.4085 H        497 DA      0.0000
   1907 H8         3.0811    -4.1733  1614.3687 H        497 DA      0.0000
   1908 H2        -2.2287    -0.5262  1614.5797 H        497 DA      0.0000
   1909 H61        1.7353     1.7900  1614.2431 H        497 DA      0.0000
   1910 H62        2.7805     0.6465  1613.4415 H        497 DA      0.0000
   1911 P         -0.7608    -8.7117  1613.7797 P.3      496 DA      0.0000
   1912 OP1       -1.8213    -9.7256  1614.2996 O.co2    496 DA      0.0000
   1913 OP2        0.1706    -9.4184  1612.8460 O.co2    496 DA      0.0000
   1914 O5'       -1.5823    -7.4650  1613.2770 O.3      496 DA      0.0000
   1915 C5'       -2.9360    -7.2626  1613.7328 C.3      496 DA      0.0000
   1916 C4'       -3.4585    -6.0281  1613.0309 C.3      496 DA      0.0000
   1917 O4'       -2.5226    -4.9951  1612.9101 O.3      496 DA      0.0000
   1918 C3'       -3.9852    -6.3045  1611.6233 C.3      496 DA      0.0000
   1919 O3'       -5.4078    -6.0827  1611.5919 O.3      496 DA      0.0000
   1920 C2'       -3.0951    -5.4450  1610.7238 C.3      496 DA      0.0000
   1921 C1'       -2.6885    -4.3160  1611.6216 C.3      496 DA      0.0000
   1922 N9        -1.4134    -3.6729  1611.3220 N.ar     496 DA      0.0000
   1923 C8        -0.1724    -4.2429  1611.1272 C.ar     496 DA      0.0000
   1924 N7         0.7867    -3.3681  1610.9218 N.ar     496 DA      0.0000
   1925 C5         0.1498    -2.1447  1610.9963 C.ar     496 DA      0.0000
   1926 C6         0.6285    -0.8221  1610.8628 C.ar     496 DA      0.0000
   1927 N6         1.8992    -0.5155  1610.6197 N.pl3    496 DA      0.0000
   1928 N1        -0.3181     0.1596  1611.0117 N.ar     496 DA      0.0000
   1929 C2        -1.6112    -0.1203  1611.2642 C.ar     496 DA      0.0000
   1930 N3        -2.1343    -1.3422  1611.4031 N.ar     496 DA      0.0000
   1931 C4        -1.1994    -2.3072  1611.2558 C.ar     496 DA      0.0000
   1932 H5'       -3.5500    -8.1262  1613.4777 H        496 DA      0.0000
   1933 H5''      -2.9447    -7.1072  1614.8116 H        496 DA      0.0000
   1934 H4'       -4.2913    -5.6457  1613.6210 H        496 DA      0.0000
   1935 H3'       -3.7977    -7.3522  1611.3883 H        496 DA      0.0000
   1936 H2'       -2.2249    -6.0066  1610.3839 H        496 DA      0.0000
   1937 H2''      -3.6629    -5.0696  1609.8725 H        496 DA      0.0000
   1938 H1'       -3.4840    -3.5733  1611.6827 H        496 DA      0.0000
   1939 H8        -0.0044    -5.3097  1611.1422 H        496 DA      0.0000
   1940 H2        -2.2854     0.7175  1611.3633 H        496 DA      0.0000
   1941 H61        2.1843     0.4077  1610.9137 H        496 DA      0.0000
   1942 H62        2.5348    -1.1606  1610.1724 H        496 DA      0.0000
   1943 P         -6.2001    -6.2971  1610.2069 P.3      495 DT      0.0000
   1944 OP1       -7.6948    -6.3731  1610.2651 O.co2    495 DT      0.0000
   1945 OP2       -5.5156    -7.5233  1609.6943 O.co2    495 DT      0.0000
   1946 O5'       -5.8341    -4.8311  1609.5038 O.3      495 DT      0.0000
   1947 C5'       -5.9341    -3.7842  1610.5161 C.3      495 DT      0.0000
   1948 C4'       -6.1489    -2.4715  1609.8332 C.3      495 DT      0.0000
   1949 O4'       -4.9750    -1.7373  1609.6527 O.3      495 DT      0.0000
   1950 C3'       -6.8184    -2.5803  1608.4719 C.3      495 DT      0.0000
   1951 O3'       -7.7294    -1.5071  1608.2046 O.3      495 DT      0.0000
   1952 C2'       -5.5716    -2.6155  1607.5786 C.3      495 DT      0.0000
   1953 C1'       -4.7060    -1.5512  1608.2186 C.3      495 DT      0.0000
   1954 N1        -3.2734    -1.8171  1607.9886 N.am     495 DT      0.0000
   1955 C2        -2.4322    -0.7251  1607.8670 C.2      495 DT      0.0000
   1956 O2        -2.8722     0.4251  1607.9038 O.2      495 DT      0.0000
   1957 N3        -1.0946    -0.9606  1607.6996 N.am     495 DT      0.0000
   1958 C4        -0.5867    -2.2213  1607.6511 C.2      495 DT      0.0000
   1959 O4         0.6606    -2.3460  1607.4656 O.2      495 DT      0.0000
   1960 C5        -1.4662    -3.3301  1607.7995 C.2      495 DT      0.0000
   1961 C7        -0.9381    -4.7440  1607.7474 C.3      495 DT      0.0000
   1962 C6        -2.7690    -3.0834  1607.9725 C.2      495 DT      0.0000
   1963 H5'       -6.7741    -3.9943  1611.1782 H        495 DT      0.0000
   1964 H5''      -5.0119    -3.7477  1611.0961 H        495 DT      0.0000
   1965 H4'       -6.8060    -1.8793  1610.4702 H        495 DT      0.0000
   1966 H3'       -7.3451    -3.5319  1608.3999 H        495 DT      0.0000
   1967 H2'       -5.0883    -3.5920  1607.6092 H        495 DT      0.0000
   1968 H2''      -5.8238    -2.3423  1606.5540 H        495 DT      0.0000
   1969 H1'       -4.9867    -0.5523  1607.8846 H        495 DT      0.0000
   1970 H3        -0.4660    -0.1751  1607.6094 H        495 DT      0.0000
   1971 H6        -3.4446    -3.9157  1608.1038 H        495 DT      0.0000
   1972 H71       -1.0693    -5.1446  1606.7422 H        495 DT      0.0000
   1973 H72       -1.4853    -5.3624  1608.4589 H        495 DT      0.0000
   1974 H73        0.1212    -4.7459  1608.0039 H        495 DT      0.0000
   1975 P         -8.4036    -1.5062  1606.7147 P.3      494 DT      0.0000
   1976 OP1       -9.9056    -1.7567  1606.8627 O.co2    494 DT      0.0000
   1977 OP2       -7.7582    -2.6853  1606.0449 O.co2    494 DT      0.0000
   1978 O5'       -8.0994    -0.1333  1606.0626 O.3      494 DT      0.0000
   1979 C5'       -7.9351     1.0694  1606.8140 C.3      494 DT      0.0000
   1980 C4'       -7.0008     1.9654  1606.0661 C.3      494 DT      0.0000
   1981 O4'       -5.6437     1.6179  1606.0091 O.3      494 DT      0.0000
   1982 C3'       -7.3533     2.2979  1604.6000 C.3      494 DT      0.0000
   1983 O3'       -6.8856     3.6461  1604.4962 O.3      494 DT      0.0000
   1984 C2'       -6.4550     1.3159  1603.8362 C.3      494 DT      0.0000
   1985 C1'       -5.1820     1.5861  1604.6120 C.3      494 DT      0.0000
   1986 N1        -4.1388     0.5621  1604.5058 N.am     494 DT      0.0000
   1987 C2        -2.8227     1.0433  1604.5052 C.2      494 DT      0.0000
   1988 O2        -2.5874     2.2526  1604.5482 O.2      494 DT      0.0000
   1989 N3        -1.8224     0.1156  1604.4517 N.am     494 DT      0.0000
   1990 C4        -2.0617    -1.2251  1604.3920 C.2      494 DT      0.0000
   1991 O4        -1.0647    -2.0058  1604.3296 O.2      494 DT      0.0000
   1992 C5        -3.4065    -1.6860  1604.4002 C.2      494 DT      0.0000
   1993 C7        -3.6869    -3.1730  1604.3388 C.3      494 DT      0.0000
   1994 C6        -4.3817    -0.7750  1604.4667 C.2      494 DT      0.0000
   1995 H5'       -8.8996     1.5623  1606.9363 H        494 DT      0.0000
   1996 H5''      -7.5155     0.8363  1607.7926 H        494 DT      0.0000
   1997 H4'       -7.0320     2.9189  1606.5933 H        494 DT      0.0000
   1998 H3'       -8.4132     2.1861  1604.3713 H        494 DT      0.0000
   1999 H2'       -6.3617     1.5713  1602.7807 H        494 DT      0.0000
   2000 H2''      -6.7895     0.2870  1603.9679 H        494 DT      0.0000
   2001 H1'       -4.7769     2.5588  1604.3330 H        494 DT      0.0000
   2002 H3        -0.8647     0.4363  1604.4566 H        494 DT      0.0000
   2003 H6        -5.4064    -1.1153  1604.4904 H        494 DT      0.0000
   2004 H71       -2.7449    -3.7192  1604.2900 H        494 DT      0.0000
   2005 H72       -4.2812    -3.3940  1603.4522 H        494 DT      0.0000
   2006 H73       -4.2369    -3.4761  1605.2298 H        494 DT      0.0000
   2007 P         -7.1847     4.6497  1603.3500 P.3      493 DC      0.0000
   2008 OP1       -7.6324     5.9797  1603.9592 O.co2    493 DC      0.0000
   2009 OP2       -8.3112     4.0504  1602.5682 O.co2    493 DC      0.0000
   2010 O5'       -5.7348     4.7230  1602.6106 O.3      493 DC      0.0000
   2011 C5'       -4.7096     5.4790  1603.3351 C.3      493 DC      0.0000
   2012 C4'       -3.8539     6.1379  1602.2846 C.3      493 DC      0.0000
   2013 O4'       -2.6652     5.4231  1602.0393 O.3      493 DC      0.0000
   2014 C3'       -4.5209     6.3201  1600.9202 C.3      493 DC      0.0000
   2015 O3'       -4.1165     7.4932  1600.2109 O.3      493 DC      0.0000
   2016 C2'       -4.1298     5.0040  1600.2341 C.3      493 DC      0.0000
   2017 C1'       -2.7258     4.7525  1600.7806 C.3      493 DC      0.0000
   2018 N1        -2.5374     3.2875  1600.8984 N.am     493 DC      0.0000
   2019 C2        -1.2253     2.8167  1600.9157 C.2      493 DC      0.0000
   2020 O2        -0.2645     3.5955  1600.8470 O.2      493 DC      0.0000
   2021 N3        -1.0466     1.4636  1601.0189 N.2      493 DC      0.0000
   2022 C4        -2.0932     0.6001  1601.0897 C.2      493 DC      0.0000
   2023 N4        -1.8676    -0.7116  1601.1916 N.pl3    493 DC      0.0000
   2024 C5        -3.4225     1.1069  1601.0645 C.2      493 DC      0.0000
   2025 C6        -3.5971     2.4363  1600.9709 C.2      493 DC      0.0000
   2026 H5'       -5.1744     6.2323  1603.9711 H        493 DC      0.0000
   2027 H5''      -4.1045     4.8027  1603.9390 H        493 DC      0.0000
   2028 H4'       -3.5773     7.1256  1602.6534 H        493 DC      0.0000
   2029 H3'       -5.6023     6.3421  1601.0544 H        493 DC      0.0000
   2030 H2'       -4.1167     5.1136  1599.1497 H        493 DC      0.0000
   2031 H2''      -4.8057     4.2017  1600.5300 H        493 DC      0.0000
   2032 H1'       -1.9823     5.1694  1600.1013 H        493 DC      0.0000
   2033 H5        -4.2701     0.4399  1601.1193 H        493 DC      0.0000
   2034 H6        -4.5996     2.8377  1600.9528 H        493 DC      0.0000
   2035 H41       -0.9202    -1.0610  1601.2123 H        493 DC      0.0000
   2036 H42       -2.6444    -1.3547  1601.2480 H        493 DC      0.0000
   2037 P         -3.9160     7.6135  1598.5789 P.3      492 DA      0.0000
   2038 OP1       -4.0543     9.0694  1598.1894 O.co2    492 DA      0.0000
   2039 OP2       -4.9547     6.7130  1598.0088 O.co2    492 DA      0.0000
   2040 O5'       -2.3836     7.1977  1598.4134 O.3      492 DA      0.0000
   2041 C5'       -1.3534     8.1537  1598.8788 C.3      492 DA      0.0000
   2042 C4'       -0.1693     7.7845  1598.0015 C.3      492 DA      0.0000
   2043 O4'        0.2289     6.4338  1598.2689 O.3      492 DA      0.0000
   2044 C3'       -0.4936     7.8028  1596.4971 C.3      492 DA      0.0000
   2045 O3'        0.6851     7.8290  1595.7081 O.3      492 DA      0.0000
   2046 C2'       -1.0761     6.3898  1596.3096 C.3      492 DA      0.0000
   2047 C1'        0.0756     5.6711  1597.0643 C.3      492 DA      0.0000
   2048 N9        -0.3864     4.2945  1597.2097 N.ar     492 DA      0.0000
   2049 C8        -1.6955     3.8738  1597.2826 C.ar     492 DA      0.0000
   2050 N7        -1.8183     2.5752  1597.3972 N.ar     492 DA      0.0000
   2051 C5        -0.4888     2.1167  1597.3908 C.ar     492 DA      0.0000
   2052 C6         0.0442     0.8021  1597.4908 C.ar     492 DA      0.0000
   2053 N6        -0.7061    -0.2967  1597.6136 N.pl3    492 DA      0.0000
   2054 N1         1.4048     0.7422  1597.4556 N.ar     492 DA      0.0000
   2055 C2         2.1666     1.8570  1597.3367 C.ar     492 DA      0.0000
   2056 N3         1.7340     3.1179  1597.2453 N.ar     492 DA      0.0000
   2057 C4         0.3906     3.1644  1597.2728 C.ar     492 DA      0.0000
   2058 H5'       -1.6645     9.1849  1598.7120 H        492 DA      0.0000
   2059 H5''      -1.1203     7.9869  1599.9304 H        492 DA      0.0000
   2060 H4'        0.6624     8.4590  1598.2055 H        492 DA      0.0000
   2061 H3'       -1.1990     8.5888  1596.2275 H        492 DA      0.0000
   2062 H2'       -2.0455     6.2618  1596.7913 H        492 DA      0.0000
   2063 H2''      -1.1083     6.1040  1595.2583 H        492 DA      0.0000
   2064 H1'        0.9925     5.7032  1596.4759 H        492 DA      0.0000
   2065 H8        -2.5381     4.5485  1597.2485 H        492 DA      0.0000
   2066 H2         3.2364     1.7107  1597.3135 H        492 DA      0.0000
   2067 H61       -1.7129    -0.2205  1597.6384 H        492 DA      0.0000
   2068 H62       -0.2664    -1.2034  1597.6817 H        492 DA      0.0000
   2069 P          0.8743     8.9171  1594.5671 P.3      491 DC      0.0000
   2070 OP1        1.3932    10.1136  1595.3474 O.co2    491 DC      0.0000
   2071 OP2       -0.3695     9.1986  1593.8415 O.co2    491 DC      0.0000
   2072 O5'        1.9519     8.1484  1593.5913 O.3      491 DC      0.0000
   2073 C5'        3.1671     7.6362  1594.2603 C.3      491 DC      0.0000
   2074 C4'        3.5530     6.3308  1593.6163 C.3      491 DC      0.0000
   2075 O4'        2.9926     5.1893  1594.2534 O.3      491 DC      0.0000
   2076 C3'        3.1346     6.2457  1592.1384 C.3      491 DC      0.0000
   2077 O3'        4.0298     5.4955  1591.3271 O.3      491 DC      0.0000
   2078 C2'        1.8018     5.4445  1592.3041 C.3      491 DC      0.0000
   2079 C1'        2.4832     4.3452  1593.1997 C.3      491 DC      0.0000
   2080 N1         1.4957     3.3251  1593.4376 N.am     491 DC      0.0000
   2081 C2         1.9289     2.0479  1593.7547 C.2      491 DC      0.0000
   2082 O2         3.0785     1.6159  1593.8952 O.2      491 DC      0.0000
   2083 N3         0.9830     1.0805  1593.9529 N.2      491 DC      0.0000
   2084 C4        -0.3547     1.3407  1593.8369 C.2      491 DC      0.0000
   2085 N4        -1.2469     0.3615  1594.0530 N.pl3    491 DC      0.0000
   2086 C5        -0.7839     2.6560  1593.5073 C.2      491 DC      0.0000
   2087 C6         0.1600     3.5849  1593.3156 C.2      491 DC      0.0000
   2088 H5'        3.9788     8.3552  1594.1488 H        491 DC      0.0000
   2089 H5''       2.9625     7.4760  1595.3189 H        491 DC      0.0000
   2090 H4'        4.6384     6.2418  1593.6630 H        491 DC      0.0000
   2091 H3'        2.9535     7.2355  1591.7194 H        491 DC      0.0000
   2092 H2'        1.0215     6.0029  1592.8212 H        491 DC      0.0000
   2093 H2''       1.4509     5.0373  1591.3559 H        491 DC      0.0000
   2094 H1'        3.3211     3.9103  1592.6548 H        491 DC      0.0000
   2095 H5        -1.8328     2.8961  1593.4152 H        491 DC      0.0000
   2096 H6        -0.1483     4.5859  1593.0524 H        491 DC      0.0000
   2097 H41       -0.9297    -0.5667  1594.2935 H        491 DC      0.0000
   2098 H42       -2.2356     0.5528  1593.9751 H        491 DC      0.0000
@<TRIPOS>BOND
     1      9     31 1
     2     39     63 1
     3    101    126 1
     4    134    158 1
     5      1      2 1
     6      1      3 1
     7      1      4 1
     8      4      5 1
     9      5      6 1
    10      6      7 1
    11      6      8 1
    12      7     11 1
    13      8      9 1
    14      8     10 1
    15     10     11 1
    16     11     12 1
    17     12     13 am
    18     12     19 1
    19     13     14 2
    20     13     15 1
    21     15     16 2
    22     16     17 2
    23     16     18 2
    24     18     19 2
    25     31     32 1
    26     31     33 1
    27     31     34 1
    28     34     35 1
    29     35     36 1
    30     36     37 1
    31     36     38 1
    32     37     41 1
    33     38     39 1
    34     38     40 1
    35     40     41 1
    36     41     42 1
    37     42     43 ar
    38     42     51 ar
    39     43     44 ar
    40     44     45 ar
    41     45     46 ar
    42     45     51 ar
    43     46     47 1
    44     46     48 ar
    45     48     49 ar
    46     49     50 ar
    47     50     51 ar
    48     63     64 1
    49     63     65 1
    50     63     66 1
    51     66     67 1
    52     67     68 1
    53     68     69 1
    54     68     70 1
    55     69     73 1
    56     70     71 1
    57     70     72 1
    58     72     73 1
    59     73     74 1
    60     74     75 am
    61     74     81 1
    62     75     76 2
    63     75     77 1
    64     77     78 2
    65     78     79 2
    66     78     80 2
    67     80     81 2
    68     93     94 1
    69     93     95 1
    70     93     96 1
    71     96     97 1
    72     97     98 1
    73     98     99 1
    74     98    100 1
    75     99    103 1
    76    100    101 1
    77    100    102 1
    78    102    103 1
    79    103    104 1
    80    104    105 ar
    81    104    114 ar
    82    105    106 ar
    83    106    107 ar
    84    107    108 1
    85    107    114 ar
    86    108    109 2
    87    108    110 am
    88    110    111 1
    89    111    112 2
    90    111    113 2
    91    113    114 1
    92    126    127 1
    93    126    128 1
    94    126    129 1
    95    129    130 1
    96    130    131 1
    97    131    132 1
    98    131    133 1
    99    132    136 1
   100    133    134 1
   101    133    135 1
   102    135    136 1
   103    136    137 1
   104    137    138 am
   105    137    145 1
   106    138    139 2
   107    138    140 am
   108    140    141 am
   109    141    142 2
   110    141    143 1
   111    143    144 1
   112    143    145 2
   113    158    159 1
   114    158    160 1
   115    158    161 1
   116    161    162 1
   117    162    163 1
   118    163    164 1
   119    163    165 1
   120    164    168 1
   121    165    166 1
   122    165    167 1
   123    167    168 1
   124    168    169 1
   125    169    170 ar
   126    169    179 ar
   127    170    171 ar
   128    171    172 ar
   129    172    173 1
   130    172    179 ar
   131    173    174 2
   132    173    175 am
   133    175    176 1
   134    176    177 2
   135    176    178 2
   136    178    179 1
   137     20      5 1
   138     21      5 1
   139     22      6 1
   140     23      8 1
   141     24     10 1
   142     25     10 1
   143     26     11 1
   144     27     18 1
   145     28     19 1
   146     52     35 1
   147     53     35 1
   148     54     36 1
   149     55     38 1
   150     56     40 1
   151     57     40 1
   152     58     41 1
   153     59     43 1
   154     60     49 1
   155     82     67 1
   156     83     67 1
   157     84     68 1
   158     85     70 1
   159     86     72 1
   160     87     72 1
   161     88     73 1
   162     89     80 1
   163     90     81 1
   164    115     97 1
   165    116     97 1
   166    117     98 1
   167    118    100 1
   168    119    102 1
   169    120    102 1
   170    121    103 1
   171    122    105 1
   172    123    110 1
   173    146    130 1
   174    147    130 1
   175    148    131 1
   176    149    133 1
   177    150    135 1
   178    151    135 1
   179    152    136 1
   180    153    140 1
   181    154    145 1
   182    180    162 1
   183    181    162 1
   184    182    163 1
   185    183    165 1
   186    184    167 1
   187    185    167 1
   188    186    168 1
   189    187    170 1
   190    188    175 1
   191     29     17 1
   192     30     17 1
   193     91     79 1
   194     92     79 1
   195    124    112 1
   196    125    112 1
   197    189    177 1
   198    190    177 1
   199     61     47 1
   200     62     47 1
   201    155    144 1
   202    156    144 1
   203    157    144 1
   204     71    191 1
   205     93    805 1
   206    199    224 1
   207    232    256 1
   208    264    289 1
   209    297    321 1
   210    329    353 1
   211    361    385 1
   212    393    417 1
   213    425    447 1
   214    455    479 1
   215    517    542 1
   216    550    574 1
   217    582    607 1
   218    615    639 1
   219    647    671 1
   220    679    703 1
   221    711    735 1
   222    743    765 1
   223    773    797 1
   224    191    192 1
   225    191    193 1
   226    191    194 1
   227    194    195 1
   228    195    196 1
   229    196    197 1
   230    196    198 1
   231    197    201 1
   232    198    199 1
   233    198    200 1
   234    200    201 1
   235    201    202 1
   236    202    203 ar
   237    202    212 ar
   238    203    204 ar
   239    204    205 ar
   240    205    206 1
   241    205    212 ar
   242    206    207 2
   243    206    208 am
   244    208    209 1
   245    209    210 2
   246    209    211 2
   247    211    212 1
   248    224    225 1
   249    224    226 1
   250    224    227 1
   251    227    228 1
   252    228    229 1
   253    229    230 1
   254    229    231 1
   255    230    234 1
   256    231    232 1
   257    231    233 1
   258    233    234 1
   259    234    235 1
   260    235    236 am
   261    235    243 1
   262    236    237 2
   263    236    238 am
   264    238    239 am
   265    239    240 2
   266    239    241 1
   267    241    242 1
   268    241    243 2
   269    256    257 1
   270    256    258 1
   271    256    259 1
   272    259    260 1
   273    260    261 1
   274    261    262 1
   275    261    263 1
   276    262    266 1
   277    263    264 1
   278    263    265 1
   279    265    266 1
   280    266    267 1
   281    267    268 ar
   282    267    277 ar
   283    268    269 ar
   284    269    270 ar
   285    270    271 1
   286    270    277 ar
   287    271    272 2
   288    271    273 am
   289    273    274 1
   290    274    275 2
   291    274    276 2
   292    276    277 1
   293    289    290 1
   294    289    291 1
   295    289    292 1
   296    292    293 1
   297    293    294 1
   298    294    295 1
   299    294    296 1
   300    295    299 1
   301    296    297 1
   302    296    298 1
   303    298    299 1
   304    299    300 1
   305    300    301 ar
   306    300    309 ar
   307    301    302 ar
   308    302    303 ar
   309    303    304 ar
   310    303    309 ar
   311    304    305 1
   312    304    306 ar
   313    306    307 ar
   314    307    308 ar
   315    308    309 ar
   316    321    322 1
   317    321    323 1
   318    321    324 1
   319    324    325 1
   320    325    326 1
   321    326    327 1
   322    326    328 1
   323    327    331 1
   324    328    329 1
   325    328    330 1
   326    330    331 1
   327    331    332 1
   328    332    333 ar
   329    332    341 ar
   330    333    334 ar
   331    334    335 ar
   332    335    336 ar
   333    335    341 ar
   334    336    337 1
   335    336    338 ar
   336    338    339 ar
   337    339    340 ar
   338    340    341 ar
   339    353    354 1
   340    353    355 1
   341    353    356 1
   342    356    357 1
   343    357    358 1
   344    358    359 1
   345    358    360 1
   346    359    363 1
   347    360    361 1
   348    360    362 1
   349    362    363 1
   350    363    364 1
   351    364    365 am
   352    364    372 1
   353    365    366 2
   354    365    367 am
   355    367    368 am
   356    368    369 2
   357    368    370 1
   358    370    371 1
   359    370    372 2
   360    385    386 1
   361    385    387 1
   362    385    388 1
   363    388    389 1
   364    389    390 1
   365    390    391 1
   366    390    392 1
   367    391    395 1
   368    392    393 1
   369    392    394 1
   370    394    395 1
   371    395    396 1
   372    396    397 am
   373    396    404 1
   374    397    398 2
   375    397    399 am
   376    399    400 am
   377    400    401 2
   378    400    402 1
   379    402    403 1
   380    402    404 2
   381    417    418 1
   382    417    419 1
   383    417    420 1
   384    420    421 1
   385    421    422 1
   386    422    423 1
   387    422    424 1
   388    423    427 1
   389    424    425 1
   390    424    426 1
   391    426    427 1
   392    427    428 1
   393    428    429 am
   394    428    435 1
   395    429    430 2
   396    429    431 1
   397    431    432 2
   398    432    433 2
   399    432    434 2
   400    434    435 2
   401    447    448 1
   402    447    449 1
   403    447    450 1
   404    450    451 1
   405    451    452 1
   406    452    453 1
   407    452    454 1
   408    453    457 1
   409    454    455 1
   410    454    456 1
   411    456    457 1
   412    457    458 1
   413    458    459 ar
   414    458    467 ar
   415    459    460 ar
   416    460    461 ar
   417    461    462 ar
   418    461    467 ar
   419    462    463 1
   420    462    464 ar
   421    464    465 ar
   422    465    466 ar
   423    466    467 ar
   424    479    480 1
   425    479    481 1
   426    479    482 1
   427    482    483 1
   428    483    484 1
   429    484    485 1
   430    484    486 1
   431    485    489 1
   432    486    487 1
   433    486    488 1
   434    488    489 1
   435    489    490 1
   436    490    491 am
   437    490    497 1
   438    491    492 2
   439    491    493 1
   440    493    494 2
   441    494    495 2
   442    494    496 2
   443    496    497 2
   444    509    510 1
   445    509    511 1
   446    509    512 1
   447    512    513 1
   448    513    514 1
   449    514    515 1
   450    514    516 1
   451    515    519 1
   452    516    517 1
   453    516    518 1
   454    518    519 1
   455    519    520 1
   456    520    521 ar
   457    520    530 ar
   458    521    522 ar
   459    522    523 ar
   460    523    524 1
   461    523    530 ar
   462    524    525 2
   463    524    526 am
   464    526    527 1
   465    527    528 2
   466    527    529 2
   467    529    530 1
   468    542    543 1
   469    542    544 1
   470    542    545 1
   471    545    546 1
   472    546    547 1
   473    547    548 1
   474    547    549 1
   475    548    552 1
   476    549    550 1
   477    549    551 1
   478    551    552 1
   479    552    553 1
   480    553    554 am
   481    553    561 1
   482    554    555 2
   483    554    556 am
   484    556    557 am
   485    557    558 2
   486    557    559 1
   487    559    560 1
   488    559    561 2
   489    574    575 1
   490    574    576 1
   491    574    577 1
   492    577    578 1
   493    578    579 1
   494    579    580 1
   495    579    581 1
   496    580    584 1
   497    581    582 1
   498    581    583 1
   499    583    584 1
   500    584    585 1
   501    585    586 ar
   502    585    595 ar
   503    586    587 ar
   504    587    588 ar
   505    588    589 1
   506    588    595 ar
   507    589    590 2
   508    589    591 am
   509    591    592 1
   510    592    593 2
   511    592    594 2
   512    594    595 1
   513    607    608 1
   514    607    609 1
   515    607    610 1
   516    610    611 1
   517    611    612 1
   518    612    613 1
   519    612    614 1
   520    613    617 1
   521    614    615 1
   522    614    616 1
   523    616    617 1
   524    617    618 1
   525    618    619 ar
   526    618    627 ar
   527    619    620 ar
   528    620    621 ar
   529    621    622 ar
   530    621    627 ar
   531    622    623 1
   532    622    624 ar
   533    624    625 ar
   534    625    626 ar
   535    626    627 ar
   536    639    640 1
   537    639    641 1
   538    639    642 1
   539    642    643 1
   540    643    644 1
   541    644    645 1
   542    644    646 1
   543    645    649 1
   544    646    647 1
   545    646    648 1
   546    648    649 1
   547    649    650 1
   548    650    651 ar
   549    650    659 ar
   550    651    652 ar
   551    652    653 ar
   552    653    654 ar
   553    653    659 ar
   554    654    655 1
   555    654    656 ar
   556    656    657 ar
   557    657    658 ar
   558    658    659 ar
   559    671    672 1
   560    671    673 1
   561    671    674 1
   562    674    675 1
   563    675    676 1
   564    676    677 1
   565    676    678 1
   566    677    681 1
   567    678    679 1
   568    678    680 1
   569    680    681 1
   570    681    682 1
   571    682    683 am
   572    682    690 1
   573    683    684 2
   574    683    685 am
   575    685    686 am
   576    686    687 2
   577    686    688 1
   578    688    689 1
   579    688    690 2
   580    703    704 1
   581    703    705 1
   582    703    706 1
   583    706    707 1
   584    707    708 1
   585    708    709 1
   586    708    710 1
   587    709    713 1
   588    710    711 1
   589    710    712 1
   590    712    713 1
   591    713    714 1
   592    714    715 am
   593    714    722 1
   594    715    716 2
   595    715    717 am
   596    717    718 am
   597    718    719 2
   598    718    720 1
   599    720    721 1
   600    720    722 2
   601    735    736 1
   602    735    737 1
   603    735    738 1
   604    738    739 1
   605    739    740 1
   606    740    741 1
   607    740    742 1
   608    741    745 1
   609    742    743 1
   610    742    744 1
   611    744    745 1
   612    745    746 1
   613    746    747 am
   614    746    753 1
   615    747    748 2
   616    747    749 1
   617    749    750 2
   618    750    751 2
   619    750    752 2
   620    752    753 2
   621    765    766 1
   622    765    767 1
   623    765    768 1
   624    768    769 1
   625    769    770 1
   626    770    771 1
   627    770    772 1
   628    771    775 1
   629    772    773 1
   630    772    774 1
   631    774    775 1
   632    775    776 1
   633    776    777 ar
   634    776    785 ar
   635    777    778 ar
   636    778    779 ar
   637    779    780 ar
   638    779    785 ar
   639    780    781 1
   640    780    782 ar
   641    782    783 ar
   642    783    784 ar
   643    784    785 ar
   644    797    798 1
   645    797    799 1
   646    797    800 1
   647    800    801 1
   648    801    802 1
   649    802    803 1
   650    802    804 1
   651    803    807 1
   652    804    805 1
   653    804    806 1
   654    806    807 1
   655    807    808 1
   656    808    809 am
   657    808    815 1
   658    809    810 2
   659    809    811 1
   660    811    812 2
   661    812    813 2
   662    812    814 2
   663    814    815 2
   664    213    195 1
   665    214    195 1
   666    215    196 1
   667    216    198 1
   668    217    200 1
   669    218    200 1
   670    219    201 1
   671    220    203 1
   672    221    208 1
   673    244    228 1
   674    245    228 1
   675    246    229 1
   676    247    231 1
   677    248    233 1
   678    249    233 1
   679    250    234 1
   680    251    238 1
   681    252    243 1
   682    278    260 1
   683    279    260 1
   684    280    261 1
   685    281    263 1
   686    282    265 1
   687    283    265 1
   688    284    266 1
   689    285    268 1
   690    286    273 1
   691    310    293 1
   692    311    293 1
   693    312    294 1
   694    313    296 1
   695    314    298 1
   696    315    298 1
   697    316    299 1
   698    317    301 1
   699    318    307 1
   700    342    325 1
   701    343    325 1
   702    344    326 1
   703    345    328 1
   704    346    330 1
   705    347    330 1
   706    348    331 1
   707    349    333 1
   708    350    339 1
   709    373    357 1
   710    374    357 1
   711    375    358 1
   712    376    360 1
   713    377    362 1
   714    378    362 1
   715    379    363 1
   716    380    367 1
   717    381    372 1
   718    405    389 1
   719    406    389 1
   720    407    390 1
   721    408    392 1
   722    409    394 1
   723    410    394 1
   724    411    395 1
   725    412    399 1
   726    413    404 1
   727    436    421 1
   728    437    421 1
   729    438    422 1
   730    439    424 1
   731    440    426 1
   732    441    426 1
   733    442    427 1
   734    443    434 1
   735    444    435 1
   736    468    451 1
   737    469    451 1
   738    470    452 1
   739    471    454 1
   740    472    456 1
   741    473    456 1
   742    474    457 1
   743    475    459 1
   744    476    465 1
   745    498    483 1
   746    499    483 1
   747    500    484 1
   748    501    486 1
   749    502    488 1
   750    503    488 1
   751    504    489 1
   752    505    496 1
   753    506    497 1
   754    531    513 1
   755    532    513 1
   756    533    514 1
   757    534    516 1
   758    535    518 1
   759    536    518 1
   760    537    519 1
   761    538    521 1
   762    539    526 1
   763    562    546 1
   764    563    546 1
   765    564    547 1
   766    565    549 1
   767    566    551 1
   768    567    551 1
   769    568    552 1
   770    569    556 1
   771    570    561 1
   772    596    578 1
   773    597    578 1
   774    598    579 1
   775    599    581 1
   776    600    583 1
   777    601    583 1
   778    602    584 1
   779    603    586 1
   780    604    591 1
   781    628    611 1
   782    629    611 1
   783    630    612 1
   784    631    614 1
   785    632    616 1
   786    633    616 1
   787    634    617 1
   788    635    619 1
   789    636    625 1
   790    660    643 1
   791    661    643 1
   792    662    644 1
   793    663    646 1
   794    664    648 1
   795    665    648 1
   796    666    649 1
   797    667    651 1
   798    668    657 1
   799    691    675 1
   800    692    675 1
   801    693    676 1
   802    694    678 1
   803    695    680 1
   804    696    680 1
   805    697    681 1
   806    698    685 1
   807    699    690 1
   808    723    707 1
   809    724    707 1
   810    725    708 1
   811    726    710 1
   812    727    712 1
   813    728    712 1
   814    729    713 1
   815    730    717 1
   816    731    722 1
   817    754    739 1
   818    755    739 1
   819    756    740 1
   820    757    742 1
   821    758    744 1
   822    759    744 1
   823    760    745 1
   824    761    752 1
   825    762    753 1
   826    786    769 1
   827    787    769 1
   828    788    770 1
   829    789    772 1
   830    790    774 1
   831    791    774 1
   832    792    775 1
   833    793    777 1
   834    794    783 1
   835    816    801 1
   836    817    801 1
   837    818    802 1
   838    819    804 1
   839    820    806 1
   840    821    806 1
   841    822    807 1
   842    823    814 1
   843    824    815 1
   844    222    210 1
   845    223    210 1
   846    287    275 1
   847    288    275 1
   848    445    433 1
   849    446    433 1
   850    507    495 1
   851    508    495 1
   852    540    528 1
   853    541    528 1
   854    605    593 1
   855    606    593 1
   856    763    751 1
   857    764    751 1
   858    825    813 1
   859    826    813 1
   860    319    305 1
   861    320    305 1
   862    351    337 1
   863    352    337 1
   864    477    463 1
   865    478    463 1
   866    637    623 1
   867    638    623 1
   868    669    655 1
   869    670    655 1
   870    795    781 1
   871    796    781 1
   872    253    242 1
   873    254    242 1
   874    255    242 1
   875    382    371 1
   876    383    371 1
   877    384    371 1
   878    414    403 1
   879    415    403 1
   880    416    403 1
   881    571    560 1
   882    572    560 1
   883    573    560 1
   884    700    689 1
   885    701    689 1
   886    702    689 1
   887    732    721 1
   888    733    721 1
   889    734    721 1
   890    487    827 1
   891    509   1441 1
   892    835    860 1
   893    868    892 1
   894    900    925 1
   895    933    957 1
   896    965    989 1
   897    997   1021 1
   898   1029   1053 1
   899   1061   1083 1
   900   1091   1115 1
   901   1153   1178 1
   902   1186   1210 1
   903   1218   1243 1
   904   1251   1275 1
   905   1283   1307 1
   906   1315   1339 1
   907   1347   1371 1
   908   1379   1401 1
   909   1409   1433 1
   910    827    828 1
   911    827    829 1
   912    827    830 1
   913    830    831 1
   914    831    832 1
   915    832    833 1
   916    832    834 1
   917    833    837 1
   918    834    835 1
   919    834    836 1
   920    836    837 1
   921    837    838 1
   922    838    839 ar
   923    838    848 ar
   924    839    840 ar
   925    840    841 ar
   926    841    842 1
   927    841    848 ar
   928    842    843 2
   929    842    844 am
   930    844    845 1
   931    845    846 2
   932    845    847 2
   933    847    848 1
   934    860    861 1
   935    860    862 1
   936    860    863 1
   937    863    864 1
   938    864    865 1
   939    865    866 1
   940    865    867 1
   941    866    870 1
   942    867    868 1
   943    867    869 1
   944    869    870 1
   945    870    871 1
   946    871    872 am
   947    871    879 1
   948    872    873 2
   949    872    874 am
   950    874    875 am
   951    875    876 2
   952    875    877 1
   953    877    878 1
   954    877    879 2
   955    892    893 1
   956    892    894 1
   957    892    895 1
   958    895    896 1
   959    896    897 1
   960    897    898 1
   961    897    899 1
   962    898    902 1
   963    899    900 1
   964    899    901 1
   965    901    902 1
   966    902    903 1
   967    903    904 ar
   968    903    913 ar
   969    904    905 ar
   970    905    906 ar
   971    906    907 1
   972    906    913 ar
   973    907    908 2
   974    907    909 am
   975    909    910 1
   976    910    911 2
   977    910    912 2
   978    912    913 1
   979    925    926 1
   980    925    927 1
   981    925    928 1
   982    928    929 1
   983    929    930 1
   984    930    931 1
   985    930    932 1
   986    931    935 1
   987    932    933 1
   988    932    934 1
   989    934    935 1
   990    935    936 1
   991    936    937 ar
   992    936    945 ar
   993    937    938 ar
   994    938    939 ar
   995    939    940 ar
   996    939    945 ar
   997    940    941 1
   998    940    942 ar
   999    942    943 ar
  1000    943    944 ar
  1001    944    945 ar
  1002    957    958 1
  1003    957    959 1
  1004    957    960 1
  1005    960    961 1
  1006    961    962 1
  1007    962    963 1
  1008    962    964 1
  1009    963    967 1
  1010    964    965 1
  1011    964    966 1
  1012    966    967 1
  1013    967    968 1
  1014    968    969 ar
  1015    968    977 ar
  1016    969    970 ar
  1017    970    971 ar
  1018    971    972 ar
  1019    971    977 ar
  1020    972    973 1
  1021    972    974 ar
  1022    974    975 ar
  1023    975    976 ar
  1024    976    977 ar
  1025    989    990 1
  1026    989    991 1
  1027    989    992 1
  1028    992    993 1
  1029    993    994 1
  1030    994    995 1
  1031    994    996 1
  1032    995    999 1
  1033    996    997 1
  1034    996    998 1
  1035    998    999 1
  1036    999   1000 1
  1037   1000   1001 am
  1038   1000   1008 1
  1039   1001   1002 2
  1040   1001   1003 am
  1041   1003   1004 am
  1042   1004   1005 2
  1043   1004   1006 1
  1044   1006   1007 1
  1045   1006   1008 2
  1046   1021   1022 1
  1047   1021   1023 1
  1048   1021   1024 1
  1049   1024   1025 1
  1050   1025   1026 1
  1051   1026   1027 1
  1052   1026   1028 1
  1053   1027   1031 1
  1054   1028   1029 1
  1055   1028   1030 1
  1056   1030   1031 1
  1057   1031   1032 1
  1058   1032   1033 am
  1059   1032   1040 1
  1060   1033   1034 2
  1061   1033   1035 am
  1062   1035   1036 am
  1063   1036   1037 2
  1064   1036   1038 1
  1065   1038   1039 1
  1066   1038   1040 2
  1067   1053   1054 1
  1068   1053   1055 1
  1069   1053   1056 1
  1070   1056   1057 1
  1071   1057   1058 1
  1072   1058   1059 1
  1073   1058   1060 1
  1074   1059   1063 1
  1075   1060   1061 1
  1076   1060   1062 1
  1077   1062   1063 1
  1078   1063   1064 1
  1079   1064   1065 am
  1080   1064   1071 1
  1081   1065   1066 2
  1082   1065   1067 1
  1083   1067   1068 2
  1084   1068   1069 2
  1085   1068   1070 2
  1086   1070   1071 2
  1087   1083   1084 1
  1088   1083   1085 1
  1089   1083   1086 1
  1090   1086   1087 1
  1091   1087   1088 1
  1092   1088   1089 1
  1093   1088   1090 1
  1094   1089   1093 1
  1095   1090   1091 1
  1096   1090   1092 1
  1097   1092   1093 1
  1098   1093   1094 1
  1099   1094   1095 ar
  1100   1094   1103 ar
  1101   1095   1096 ar
  1102   1096   1097 ar
  1103   1097   1098 ar
  1104   1097   1103 ar
  1105   1098   1099 1
  1106   1098   1100 ar
  1107   1100   1101 ar
  1108   1101   1102 ar
  1109   1102   1103 ar
  1110   1115   1116 1
  1111   1115   1117 1
  1112   1115   1118 1
  1113   1118   1119 1
  1114   1119   1120 1
  1115   1120   1121 1
  1116   1120   1122 1
  1117   1121   1125 1
  1118   1122   1123 1
  1119   1122   1124 1
  1120   1124   1125 1
  1121   1125   1126 1
  1122   1126   1127 am
  1123   1126   1133 1
  1124   1127   1128 2
  1125   1127   1129 1
  1126   1129   1130 2
  1127   1130   1131 2
  1128   1130   1132 2
  1129   1132   1133 2
  1130   1145   1146 1
  1131   1145   1147 1
  1132   1145   1148 1
  1133   1148   1149 1
  1134   1149   1150 1
  1135   1150   1151 1
  1136   1150   1152 1
  1137   1151   1155 1
  1138   1152   1153 1
  1139   1152   1154 1
  1140   1154   1155 1
  1141   1155   1156 1
  1142   1156   1157 ar
  1143   1156   1166 ar
  1144   1157   1158 ar
  1145   1158   1159 ar
  1146   1159   1160 1
  1147   1159   1166 ar
  1148   1160   1161 2
  1149   1160   1162 am
  1150   1162   1163 1
  1151   1163   1164 2
  1152   1163   1165 2
  1153   1165   1166 1
  1154   1178   1179 1
  1155   1178   1180 1
  1156   1178   1181 1
  1157   1181   1182 1
  1158   1182   1183 1
  1159   1183   1184 1
  1160   1183   1185 1
  1161   1184   1188 1
  1162   1185   1186 1
  1163   1185   1187 1
  1164   1187   1188 1
  1165   1188   1189 1
  1166   1189   1190 am
  1167   1189   1197 1
  1168   1190   1191 2
  1169   1190   1192 am
  1170   1192   1193 am
  1171   1193   1194 2
  1172   1193   1195 1
  1173   1195   1196 1
  1174   1195   1197 2
  1175   1210   1211 1
  1176   1210   1212 1
  1177   1210   1213 1
  1178   1213   1214 1
  1179   1214   1215 1
  1180   1215   1216 1
  1181   1215   1217 1
  1182   1216   1220 1
  1183   1217   1218 1
  1184   1217   1219 1
  1185   1219   1220 1
  1186   1220   1221 1
  1187   1221   1222 ar
  1188   1221   1231 ar
  1189   1222   1223 ar
  1190   1223   1224 ar
  1191   1224   1225 1
  1192   1224   1231 ar
  1193   1225   1226 2
  1194   1225   1227 am
  1195   1227   1228 1
  1196   1228   1229 2
  1197   1228   1230 2
  1198   1230   1231 1
  1199   1243   1244 1
  1200   1243   1245 1
  1201   1243   1246 1
  1202   1246   1247 1
  1203   1247   1248 1
  1204   1248   1249 1
  1205   1248   1250 1
  1206   1249   1253 1
  1207   1250   1251 1
  1208   1250   1252 1
  1209   1252   1253 1
  1210   1253   1254 1
  1211   1254   1255 ar
  1212   1254   1263 ar
  1213   1255   1256 ar
  1214   1256   1257 ar
  1215   1257   1258 ar
  1216   1257   1263 ar
  1217   1258   1259 1
  1218   1258   1260 ar
  1219   1260   1261 ar
  1220   1261   1262 ar
  1221   1262   1263 ar
  1222   1275   1276 1
  1223   1275   1277 1
  1224   1275   1278 1
  1225   1278   1279 1
  1226   1279   1280 1
  1227   1280   1281 1
  1228   1280   1282 1
  1229   1281   1285 1
  1230   1282   1283 1
  1231   1282   1284 1
  1232   1284   1285 1
  1233   1285   1286 1
  1234   1286   1287 ar
  1235   1286   1295 ar
  1236   1287   1288 ar
  1237   1288   1289 ar
  1238   1289   1290 ar
  1239   1289   1295 ar
  1240   1290   1291 1
  1241   1290   1292 ar
  1242   1292   1293 ar
  1243   1293   1294 ar
  1244   1294   1295 ar
  1245   1307   1308 1
  1246   1307   1309 1
  1247   1307   1310 1
  1248   1310   1311 1
  1249   1311   1312 1
  1250   1312   1313 1
  1251   1312   1314 1
  1252   1313   1317 1
  1253   1314   1315 1
  1254   1314   1316 1
  1255   1316   1317 1
  1256   1317   1318 1
  1257   1318   1319 am
  1258   1318   1326 1
  1259   1319   1320 2
  1260   1319   1321 am
  1261   1321   1322 am
  1262   1322   1323 2
  1263   1322   1324 1
  1264   1324   1325 1
  1265   1324   1326 2
  1266   1339   1340 1
  1267   1339   1341 1
  1268   1339   1342 1
  1269   1342   1343 1
  1270   1343   1344 1
  1271   1344   1345 1
  1272   1344   1346 1
  1273   1345   1349 1
  1274   1346   1347 1
  1275   1346   1348 1
  1276   1348   1349 1
  1277   1349   1350 1
  1278   1350   1351 am
  1279   1350   1358 1
  1280   1351   1352 2
  1281   1351   1353 am
  1282   1353   1354 am
  1283   1354   1355 2
  1284   1354   1356 1
  1285   1356   1357 1
  1286   1356   1358 2
  1287   1371   1372 1
  1288   1371   1373 1
  1289   1371   1374 1
  1290   1374   1375 1
  1291   1375   1376 1
  1292   1376   1377 1
  1293   1376   1378 1
  1294   1377   1381 1
  1295   1378   1379 1
  1296   1378   1380 1
  1297   1380   1381 1
  1298   1381   1382 1
  1299   1382   1383 am
  1300   1382   1389 1
  1301   1383   1384 2
  1302   1383   1385 1
  1303   1385   1386 2
  1304   1386   1387 2
  1305   1386   1388 2
  1306   1388   1389 2
  1307   1401   1402 1
  1308   1401   1403 1
  1309   1401   1404 1
  1310   1404   1405 1
  1311   1405   1406 1
  1312   1406   1407 1
  1313   1406   1408 1
  1314   1407   1411 1
  1315   1408   1409 1
  1316   1408   1410 1
  1317   1410   1411 1
  1318   1411   1412 1
  1319   1412   1413 ar
  1320   1412   1421 ar
  1321   1413   1414 ar
  1322   1414   1415 ar
  1323   1415   1416 ar
  1324   1415   1421 ar
  1325   1416   1417 1
  1326   1416   1418 ar
  1327   1418   1419 ar
  1328   1419   1420 ar
  1329   1420   1421 ar
  1330   1433   1434 1
  1331   1433   1435 1
  1332   1433   1436 1
  1333   1436   1437 1
  1334   1437   1438 1
  1335   1438   1439 1
  1336   1438   1440 1
  1337   1439   1443 1
  1338   1440   1441 1
  1339   1440   1442 1
  1340   1442   1443 1
  1341   1443   1444 1
  1342   1444   1445 am
  1343   1444   1451 1
  1344   1445   1446 2
  1345   1445   1447 1
  1346   1447   1448 2
  1347   1448   1449 2
  1348   1448   1450 2
  1349   1450   1451 2
  1350    849    831 1
  1351    850    831 1
  1352    851    832 1
  1353    852    834 1
  1354    853    836 1
  1355    854    836 1
  1356    855    837 1
  1357    856    839 1
  1358    857    844 1
  1359    880    864 1
  1360    881    864 1
  1361    882    865 1
  1362    883    867 1
  1363    884    869 1
  1364    885    869 1
  1365    886    870 1
  1366    887    874 1
  1367    888    879 1
  1368    914    896 1
  1369    915    896 1
  1370    916    897 1
  1371    917    899 1
  1372    918    901 1
  1373    919    901 1
  1374    920    902 1
  1375    921    904 1
  1376    922    909 1
  1377    946    929 1
  1378    947    929 1
  1379    948    930 1
  1380    949    932 1
  1381    950    934 1
  1382    951    934 1
  1383    952    935 1
  1384    953    937 1
  1385    954    943 1
  1386    978    961 1
  1387    979    961 1
  1388    980    962 1
  1389    981    964 1
  1390    982    966 1
  1391    983    966 1
  1392    984    967 1
  1393    985    969 1
  1394    986    975 1
  1395   1009    993 1
  1396   1010    993 1
  1397   1011    994 1
  1398   1012    996 1
  1399   1013    998 1
  1400   1014    998 1
  1401   1015    999 1
  1402   1016   1003 1
  1403   1017   1008 1
  1404   1041   1025 1
  1405   1042   1025 1
  1406   1043   1026 1
  1407   1044   1028 1
  1408   1045   1030 1
  1409   1046   1030 1
  1410   1047   1031 1
  1411   1048   1035 1
  1412   1049   1040 1
  1413   1072   1057 1
  1414   1073   1057 1
  1415   1074   1058 1
  1416   1075   1060 1
  1417   1076   1062 1
  1418   1077   1062 1
  1419   1078   1063 1
  1420   1079   1070 1
  1421   1080   1071 1
  1422   1104   1087 1
  1423   1105   1087 1
  1424   1106   1088 1
  1425   1107   1090 1
  1426   1108   1092 1
  1427   1109   1092 1
  1428   1110   1093 1
  1429   1111   1095 1
  1430   1112   1101 1
  1431   1134   1119 1
  1432   1135   1119 1
  1433   1136   1120 1
  1434   1137   1122 1
  1435   1138   1124 1
  1436   1139   1124 1
  1437   1140   1125 1
  1438   1141   1132 1
  1439   1142   1133 1
  1440   1167   1149 1
  1441   1168   1149 1
  1442   1169   1150 1
  1443   1170   1152 1
  1444   1171   1154 1
  1445   1172   1154 1
  1446   1173   1155 1
  1447   1174   1157 1
  1448   1175   1162 1
  1449   1198   1182 1
  1450   1199   1182 1
  1451   1200   1183 1
  1452   1201   1185 1
  1453   1202   1187 1
  1454   1203   1187 1
  1455   1204   1188 1
  1456   1205   1192 1
  1457   1206   1197 1
  1458   1232   1214 1
  1459   1233   1214 1
  1460   1234   1215 1
  1461   1235   1217 1
  1462   1236   1219 1
  1463   1237   1219 1
  1464   1238   1220 1
  1465   1239   1222 1
  1466   1240   1227 1
  1467   1264   1247 1
  1468   1265   1247 1
  1469   1266   1248 1
  1470   1267   1250 1
  1471   1268   1252 1
  1472   1269   1252 1
  1473   1270   1253 1
  1474   1271   1255 1
  1475   1272   1261 1
  1476   1296   1279 1
  1477   1297   1279 1
  1478   1298   1280 1
  1479   1299   1282 1
  1480   1300   1284 1
  1481   1301   1284 1
  1482   1302   1285 1
  1483   1303   1287 1
  1484   1304   1293 1
  1485   1327   1311 1
  1486   1328   1311 1
  1487   1329   1312 1
  1488   1330   1314 1
  1489   1331   1316 1
  1490   1332   1316 1
  1491   1333   1317 1
  1492   1334   1321 1
  1493   1335   1326 1
  1494   1359   1343 1
  1495   1360   1343 1
  1496   1361   1344 1
  1497   1362   1346 1
  1498   1363   1348 1
  1499   1364   1348 1
  1500   1365   1349 1
  1501   1366   1353 1
  1502   1367   1358 1
  1503   1390   1375 1
  1504   1391   1375 1
  1505   1392   1376 1
  1506   1393   1378 1
  1507   1394   1380 1
  1508   1395   1380 1
  1509   1396   1381 1
  1510   1397   1388 1
  1511   1398   1389 1
  1512   1422   1405 1
  1513   1423   1405 1
  1514   1424   1406 1
  1515   1425   1408 1
  1516   1426   1410 1
  1517   1427   1410 1
  1518   1428   1411 1
  1519   1429   1413 1
  1520   1430   1419 1
  1521   1452   1437 1
  1522   1453   1437 1
  1523   1454   1438 1
  1524   1455   1440 1
  1525   1456   1442 1
  1526   1457   1442 1
  1527   1458   1443 1
  1528   1459   1450 1
  1529   1460   1451 1
  1530    858    846 1
  1531    859    846 1
  1532    923    911 1
  1533    924    911 1
  1534   1081   1069 1
  1535   1082   1069 1
  1536   1143   1131 1
  1537   1144   1131 1
  1538   1176   1164 1
  1539   1177   1164 1
  1540   1241   1229 1
  1541   1242   1229 1
  1542   1399   1387 1
  1543   1400   1387 1
  1544   1461   1449 1
  1545   1462   1449 1
  1546    955    941 1
  1547    956    941 1
  1548    987    973 1
  1549    988    973 1
  1550   1113   1099 1
  1551   1114   1099 1
  1552   1273   1259 1
  1553   1274   1259 1
  1554   1305   1291 1
  1555   1306   1291 1
  1556   1431   1417 1
  1557   1432   1417 1
  1558    889    878 1
  1559    890    878 1
  1560    891    878 1
  1561   1018   1007 1
  1562   1019   1007 1
  1563   1020   1007 1
  1564   1050   1039 1
  1565   1051   1039 1
  1566   1052   1039 1
  1567   1207   1196 1
  1568   1208   1196 1
  1569   1209   1196 1
  1570   1336   1325 1
  1571   1337   1325 1
  1572   1338   1325 1
  1573   1368   1357 1
  1574   1369   1357 1
  1575   1370   1357 1
  1576   1123   1463 1
  1577   1145   2077 1
  1578   1471   1496 1
  1579   1504   1528 1
  1580   1536   1561 1
  1581   1569   1593 1
  1582   1601   1625 1
  1583   1633   1657 1
  1584   1665   1689 1
  1585   1697   1719 1
  1586   1727   1751 1
  1587   1789   1814 1
  1588   1822   1846 1
  1589   1854   1879 1
  1590   1887   1911 1
  1591   1919   1943 1
  1592   1951   1975 1
  1593   1983   2007 1
  1594   2015   2037 1
  1595   2045   2069 1
  1596   1463   1464 1
  1597   1463   1465 1
  1598   1463   1466 1
  1599   1466   1467 1
  1600   1467   1468 1
  1601   1468   1469 1
  1602   1468   1470 1
  1603   1469   1473 1
  1604   1470   1471 1
  1605   1470   1472 1
  1606   1472   1473 1
  1607   1473   1474 1
  1608   1474   1475 ar
  1609   1474   1484 ar
  1610   1475   1476 ar
  1611   1476   1477 ar
  1612   1477   1478 1
  1613   1477   1484 ar
  1614   1478   1479 2
  1615   1478   1480 am
  1616   1480   1481 1
  1617   1481   1482 2
  1618   1481   1483 2
  1619   1483   1484 1
  1620   1496   1497 1
  1621   1496   1498 1
  1622   1496   1499 1
  1623   1499   1500 1
  1624   1500   1501 1
  1625   1501   1502 1
  1626   1501   1503 1
  1627   1502   1506 1
  1628   1503   1504 1
  1629   1503   1505 1
  1630   1505   1506 1
  1631   1506   1507 1
  1632   1507   1508 am
  1633   1507   1515 1
  1634   1508   1509 2
  1635   1508   1510 am
  1636   1510   1511 am
  1637   1511   1512 2
  1638   1511   1513 1
  1639   1513   1514 1
  1640   1513   1515 2
  1641   1528   1529 1
  1642   1528   1530 1
  1643   1528   1531 1
  1644   1531   1532 1
  1645   1532   1533 1
  1646   1533   1534 1
  1647   1533   1535 1
  1648   1534   1538 1
  1649   1535   1536 1
  1650   1535   1537 1
  1651   1537   1538 1
  1652   1538   1539 1
  1653   1539   1540 ar
  1654   1539   1549 ar
  1655   1540   1541 ar
  1656   1541   1542 ar
  1657   1542   1543 1
  1658   1542   1549 ar
  1659   1543   1544 2
  1660   1543   1545 am
  1661   1545   1546 1
  1662   1546   1547 2
  1663   1546   1548 2
  1664   1548   1549 1
  1665   1561   1562 1
  1666   1561   1563 1
  1667   1561   1564 1
  1668   1564   1565 1
  1669   1565   1566 1
  1670   1566   1567 1
  1671   1566   1568 1
  1672   1567   1571 1
  1673   1568   1569 1
  1674   1568   1570 1
  1675   1570   1571 1
  1676   1571   1572 1
  1677   1572   1573 ar
  1678   1572   1581 ar
  1679   1573   1574 ar
  1680   1574   1575 ar
  1681   1575   1576 ar
  1682   1575   1581 ar
  1683   1576   1577 1
  1684   1576   1578 ar
  1685   1578   1579 ar
  1686   1579   1580 ar
  1687   1580   1581 ar
  1688   1593   1594 1
  1689   1593   1595 1
  1690   1593   1596 1
  1691   1596   1597 1
  1692   1597   1598 1
  1693   1598   1599 1
  1694   1598   1600 1
  1695   1599   1603 1
  1696   1600   1601 1
  1697   1600   1602 1
  1698   1602   1603 1
  1699   1603   1604 1
  1700   1604   1605 ar
  1701   1604   1613 ar
  1702   1605   1606 ar
  1703   1606   1607 ar
  1704   1607   1608 ar
  1705   1607   1613 ar
  1706   1608   1609 1
  1707   1608   1610 ar
  1708   1610   1611 ar
  1709   1611   1612 ar
  1710   1612   1613 ar
  1711   1625   1626 1
  1712   1625   1627 1
  1713   1625   1628 1
  1714   1628   1629 1
  1715   1629   1630 1
  1716   1630   1631 1
  1717   1630   1632 1
  1718   1631   1635 1
  1719   1632   1633 1
  1720   1632   1634 1
  1721   1634   1635 1
  1722   1635   1636 1
  1723   1636   1637 am
  1724   1636   1644 1
  1725   1637   1638 2
  1726   1637   1639 am
  1727   1639   1640 am
  1728   1640   1641 2
  1729   1640   1642 1
  1730   1642   1643 1
  1731   1642   1644 2
  1732   1657   1658 1
  1733   1657   1659 1
  1734   1657   1660 1
  1735   1660   1661 1
  1736   1661   1662 1
  1737   1662   1663 1
  1738   1662   1664 1
  1739   1663   1667 1
  1740   1664   1665 1
  1741   1664   1666 1
  1742   1666   1667 1
  1743   1667   1668 1
  1744   1668   1669 am
  1745   1668   1676 1
  1746   1669   1670 2
  1747   1669   1671 am
  1748   1671   1672 am
  1749   1672   1673 2
  1750   1672   1674 1
  1751   1674   1675 1
  1752   1674   1676 2
  1753   1689   1690 1
  1754   1689   1691 1
  1755   1689   1692 1
  1756   1692   1693 1
  1757   1693   1694 1
  1758   1694   1695 1
  1759   1694   1696 1
  1760   1695   1699 1
  1761   1696   1697 1
  1762   1696   1698 1
  1763   1698   1699 1
  1764   1699   1700 1
  1765   1700   1701 am
  1766   1700   1707 1
  1767   1701   1702 2
  1768   1701   1703 1
  1769   1703   1704 2
  1770   1704   1705 2
  1771   1704   1706 2
  1772   1706   1707 2
  1773   1719   1720 1
  1774   1719   1721 1
  1775   1719   1722 1
  1776   1722   1723 1
  1777   1723   1724 1
  1778   1724   1725 1
  1779   1724   1726 1
  1780   1725   1729 1
  1781   1726   1727 1
  1782   1726   1728 1
  1783   1728   1729 1
  1784   1729   1730 1
  1785   1730   1731 ar
  1786   1730   1739 ar
  1787   1731   1732 ar
  1788   1732   1733 ar
  1789   1733   1734 ar
  1790   1733   1739 ar
  1791   1734   1735 1
  1792   1734   1736 ar
  1793   1736   1737 ar
  1794   1737   1738 ar
  1795   1738   1739 ar
  1796   1751   1752 1
  1797   1751   1753 1
  1798   1751   1754 1
  1799   1754   1755 1
  1800   1755   1756 1
  1801   1756   1757 1
  1802   1756   1758 1
  1803   1757   1761 1
  1804   1758   1759 1
  1805   1758   1760 1
  1806   1760   1761 1
  1807   1761   1762 1
  1808   1762   1763 am
  1809   1762   1769 1
  1810   1763   1764 2
  1811   1763   1765 1
  1812   1765   1766 2
  1813   1766   1767 2
  1814   1766   1768 2
  1815   1768   1769 2
  1816   1781   1782 1
  1817   1781   1783 1
  1818   1781   1784 1
  1819   1784   1785 1
  1820   1785   1786 1
  1821   1786   1787 1
  1822   1786   1788 1
  1823   1787   1791 1
  1824   1788   1789 1
  1825   1788   1790 1
  1826   1790   1791 1
  1827   1791   1792 1
  1828   1792   1793 ar
  1829   1792   1802 ar
  1830   1793   1794 ar
  1831   1794   1795 ar
  1832   1795   1796 1
  1833   1795   1802 ar
  1834   1796   1797 2
  1835   1796   1798 am
  1836   1798   1799 1
  1837   1799   1800 2
  1838   1799   1801 2
  1839   1801   1802 1
  1840   1814   1815 1
  1841   1814   1816 1
  1842   1814   1817 1
  1843   1817   1818 1
  1844   1818   1819 1
  1845   1819   1820 1
  1846   1819   1821 1
  1847   1820   1824 1
  1848   1821   1822 1
  1849   1821   1823 1
  1850   1823   1824 1
  1851   1824   1825 1
  1852   1825   1826 am
  1853   1825   1833 1
  1854   1826   1827 2
  1855   1826   1828 am
  1856   1828   1829 am
  1857   1829   1830 2
  1858   1829   1831 1
  1859   1831   1832 1
  1860   1831   1833 2
  1861   1846   1847 1
  1862   1846   1848 1
  1863   1846   1849 1
  1864   1849   1850 1
  1865   1850   1851 1
  1866   1851   1852 1
  1867   1851   1853 1
  1868   1852   1856 1
  1869   1853   1854 1
  1870   1853   1855 1
  1871   1855   1856 1
  1872   1856   1857 1
  1873   1857   1858 ar
  1874   1857   1867 ar
  1875   1858   1859 ar
  1876   1859   1860 ar
  1877   1860   1861 1
  1878   1860   1867 ar
  1879   1861   1862 2
  1880   1861   1863 am
  1881   1863   1864 1
  1882   1864   1865 2
  1883   1864   1866 2
  1884   1866   1867 1
  1885   1879   1880 1
  1886   1879   1881 1
  1887   1879   1882 1
  1888   1882   1883 1
  1889   1883   1884 1
  1890   1884   1885 1
  1891   1884   1886 1
  1892   1885   1889 1
  1893   1886   1887 1
  1894   1886   1888 1
  1895   1888   1889 1
  1896   1889   1890 1
  1897   1890   1891 ar
  1898   1890   1899 ar
  1899   1891   1892 ar
  1900   1892   1893 ar
  1901   1893   1894 ar
  1902   1893   1899 ar
  1903   1894   1895 1
  1904   1894   1896 ar
  1905   1896   1897 ar
  1906   1897   1898 ar
  1907   1898   1899 ar
  1908   1911   1912 1
  1909   1911   1913 1
  1910   1911   1914 1
  1911   1914   1915 1
  1912   1915   1916 1
  1913   1916   1917 1
  1914   1916   1918 1
  1915   1917   1921 1
  1916   1918   1919 1
  1917   1918   1920 1
  1918   1920   1921 1
  1919   1921   1922 1
  1920   1922   1923 ar
  1921   1922   1931 ar
  1922   1923   1924 ar
  1923   1924   1925 ar
  1924   1925   1926 ar
  1925   1925   1931 ar
  1926   1926   1927 1
  1927   1926   1928 ar
  1928   1928   1929 ar
  1929   1929   1930 ar
  1930   1930   1931 ar
  1931   1943   1944 1
  1932   1943   1945 1
  1933   1943   1946 1
  1934   1946   1947 1
  1935   1947   1948 1
  1936   1948   1949 1
  1937   1948   1950 1
  1938   1949   1953 1
  1939   1950   1951 1
  1940   1950   1952 1
  1941   1952   1953 1
  1942   1953   1954 1
  1943   1954   1955 am
  1944   1954   1962 1
  1945   1955   1956 2
  1946   1955   1957 am
  1947   1957   1958 am
  1948   1958   1959 2
  1949   1958   1960 1
  1950   1960   1961 1
  1951   1960   1962 2
  1952   1975   1976 1
  1953   1975   1977 1
  1954   1975   1978 1
  1955   1978   1979 1
  1956   1979   1980 1
  1957   1980   1981 1
  1958   1980   1982 1
  1959   1981   1985 1
  1960   1982   1983 1
  1961   1982   1984 1
  1962   1984   1985 1
  1963   1985   1986 1
  1964   1986   1987 am
  1965   1986   1994 1
  1966   1987   1988 2
  1967   1987   1989 am
  1968   1989   1990 am
  1969   1990   1991 2
  1970   1990   1992 1
  1971   1992   1993 1
  1972   1992   1994 2
  1973   2007   2008 1
  1974   2007   2009 1
  1975   2007   2010 1
  1976   2010   2011 1
  1977   2011   2012 1
  1978   2012   2013 1
  1979   2012   2014 1
  1980   2013   2017 1
  1981   2014   2015 1
  1982   2014   2016 1
  1983   2016   2017 1
  1984   2017   2018 1
  1985   2018   2019 am
  1986   2018   2025 1
  1987   2019   2020 2
  1988   2019   2021 1
  1989   2021   2022 2
  1990   2022   2023 2
  1991   2022   2024 2
  1992   2024   2025 2
  1993   2037   2038 1
  1994   2037   2039 1
  1995   2037   2040 1
  1996   2040   2041 1
  1997   2041   2042 1
  1998   2042   2043 1
  1999   2042   2044 1
  2000   2043   2047 1
  2001   2044   2045 1
  2002   2044   2046 1
  2003   2046   2047 1
  2004   2047   2048 1
  2005   2048   2049 ar
  2006   2048   2057 ar
  2007   2049   2050 ar
  2008   2050   2051 ar
  2009   2051   2052 ar
  2010   2051   2057 ar
  2011   2052   2053 1
  2012   2052   2054 ar
  2013   2054   2055 ar
  2014   2055   2056 ar
  2015   2056   2057 ar
  2016   2069   2070 1
  2017   2069   2071 1
  2018   2069   2072 1
  2019   2072   2073 1
  2020   2073   2074 1
  2021   2074   2075 1
  2022   2074   2076 1
  2023   2075   2079 1
  2024   2076   2077 1
  2025   2076   2078 1
  2026   2078   2079 1
  2027   2079   2080 1
  2028   2080   2081 am
  2029   2080   2087 1
  2030   2081   2082 2
  2031   2081   2083 1
  2032   2083   2084 2
  2033   2084   2085 2
  2034   2084   2086 2
  2035   2086   2087 2
  2036   1485   1467 1
  2037   1486   1467 1
  2038   1487   1468 1
  2039   1488   1470 1
  2040   1489   1472 1
  2041   1490   1472 1
  2042   1491   1473 1
  2043   1492   1475 1
  2044   1493   1480 1
  2045   1516   1500 1
  2046   1517   1500 1
  2047   1518   1501 1
  2048   1519   1503 1
  2049   1520   1505 1
  2050   1521   1505 1
  2051   1522   1506 1
  2052   1523   1510 1
  2053   1524   1515 1
  2054   1550   1532 1
  2055   1551   1532 1
  2056   1552   1533 1
  2057   1553   1535 1
  2058   1554   1537 1
  2059   1555   1537 1
  2060   1556   1538 1
  2061   1557   1540 1
  2062   1558   1545 1
  2063   1582   1565 1
  2064   1583   1565 1
  2065   1584   1566 1
  2066   1585   1568 1
  2067   1586   1570 1
  2068   1587   1570 1
  2069   1588   1571 1
  2070   1589   1573 1
  2071   1590   1579 1
  2072   1614   1597 1
  2073   1615   1597 1
  2074   1616   1598 1
  2075   1617   1600 1
  2076   1618   1602 1
  2077   1619   1602 1
  2078   1620   1603 1
  2079   1621   1605 1
  2080   1622   1611 1
  2081   1645   1629 1
  2082   1646   1629 1
  2083   1647   1630 1
  2084   1648   1632 1
  2085   1649   1634 1
  2086   1650   1634 1
  2087   1651   1635 1
  2088   1652   1639 1
  2089   1653   1644 1
  2090   1677   1661 1
  2091   1678   1661 1
  2092   1679   1662 1
  2093   1680   1664 1
  2094   1681   1666 1
  2095   1682   1666 1
  2096   1683   1667 1
  2097   1684   1671 1
  2098   1685   1676 1
  2099   1708   1693 1
  2100   1709   1693 1
  2101   1710   1694 1
  2102   1711   1696 1
  2103   1712   1698 1
  2104   1713   1698 1
  2105   1714   1699 1
  2106   1715   1706 1
  2107   1716   1707 1
  2108   1740   1723 1
  2109   1741   1723 1
  2110   1742   1724 1
  2111   1743   1726 1
  2112   1744   1728 1
  2113   1745   1728 1
  2114   1746   1729 1
  2115   1747   1731 1
  2116   1748   1737 1
  2117   1770   1755 1
  2118   1771   1755 1
  2119   1772   1756 1
  2120   1773   1758 1
  2121   1774   1760 1
  2122   1775   1760 1
  2123   1776   1761 1
  2124   1777   1768 1
  2125   1778   1769 1
  2126   1803   1785 1
  2127   1804   1785 1
  2128   1805   1786 1
  2129   1806   1788 1
  2130   1807   1790 1
  2131   1808   1790 1
  2132   1809   1791 1
  2133   1810   1793 1
  2134   1811   1798 1
  2135   1834   1818 1
  2136   1835   1818 1
  2137   1836   1819 1
  2138   1837   1821 1
  2139   1838   1823 1
  2140   1839   1823 1
  2141   1840   1824 1
  2142   1841   1828 1
  2143   1842   1833 1
  2144   1868   1850 1
  2145   1869   1850 1
  2146   1870   1851 1
  2147   1871   1853 1
  2148   1872   1855 1
  2149   1873   1855 1
  2150   1874   1856 1
  2151   1875   1858 1
  2152   1876   1863 1
  2153   1900   1883 1
  2154   1901   1883 1
  2155   1902   1884 1
  2156   1903   1886 1
  2157   1904   1888 1
  2158   1905   1888 1
  2159   1906   1889 1
  2160   1907   1891 1
  2161   1908   1897 1
  2162   1932   1915 1
  2163   1933   1915 1
  2164   1934   1916 1
  2165   1935   1918 1
  2166   1936   1920 1
  2167   1937   1920 1
  2168   1938   1921 1
  2169   1939   1923 1
  2170   1940   1929 1
  2171   1963   1947 1
  2172   1964   1947 1
  2173   1965   1948 1
  2174   1966   1950 1
  2175   1967   1952 1
  2176   1968   1952 1
  2177   1969   1953 1
  2178   1970   1957 1
  2179   1971   1962 1
  2180   1995   1979 1
  2181   1996   1979 1
  2182   1997   1980 1
  2183   1998   1982 1
  2184   1999   1984 1
  2185   2000   1984 1
  2186   2001   1985 1
  2187   2002   1989 1
  2188   2003   1994 1
  2189   2026   2011 1
  2190   2027   2011 1
  2191   2028   2012 1
  2192   2029   2014 1
  2193   2030   2016 1
  2194   2031   2016 1
  2195   2032   2017 1
  2196   2033   2024 1
  2197   2034   2025 1
  2198   2058   2041 1
  2199   2059   2041 1
  2200   2060   2042 1
  2201   2061   2044 1
  2202   2062   2046 1
  2203   2063   2046 1
  2204   2064   2047 1
  2205   2065   2049 1
  2206   2066   2055 1
  2207   2088   2073 1
  2208   2089   2073 1
  2209   2090   2074 1
  2210   2091   2076 1
  2211   2092   2078 1
  2212   2093   2078 1
  2213   2094   2079 1
  2214   2095   2086 1
  2215   2096   2087 1
  2216   1494   1482 1
  2217   1495   1482 1
  2218   1559   1547 1
  2219   1560   1547 1
  2220   1717   1705 1
  2221   1718   1705 1
  2222   1779   1767 1
  2223   1780   1767 1
  2224   1812   1800 1
  2225   1813   1800 1
  2226   1877   1865 1
  2227   1878   1865 1
  2228   2035   2023 1
  2229   2036   2023 1
  2230   2097   2085 1
  2231   2098   2085 1
  2232   1591   1577 1
  2233   1592   1577 1
  2234   1623   1609 1
  2235   1624   1609 1
  2236   1749   1735 1
  2237   1750   1735 1
  2238   1909   1895 1
  2239   1910   1895 1
  2240   1941   1927 1
  2241   1942   1927 1
  2242   2067   2053 1
  2243   2068   2053 1
  2244   1525   1514 1
  2245   1526   1514 1
  2246   1527   1514 1
  2247   1654   1643 1
  2248   1655   1643 1
  2249   1656   1643 1
  2250   1686   1675 1
  2251   1687   1675 1
  2252   1688   1675 1
  2253   1843   1832 1
  2254   1844   1832 1
  2255   1845   1832 1
  2256   1972   1961 1
  2257   1973   1961 1
  2258   1974   1961 1
  2259   2004   1993 1
  2260   2005   1993 1
  2261   2006   1993 1
@<TRIPOS>MOLECULE
dna-seg-15-bp34
2162 2330 1 0 0
BIOPOLYMER
NO_CHARGES


@<TRIPOS>ATOM
      1 P         -0.5118   -10.0060  1627.9263 P.3      501 DG      0.0000
      2 OP1       -1.2831   -11.2735  1627.9248 O.co2    501 DG      0.0000
      3 OP2       -1.1567    -9.0961  1628.9820 O.co2    501 DG      0.0000
      4 O5'        1.0648   -10.1242  1628.1047 O.3      501 DG      0.0000
      5 C5'        2.1016   -10.0321  1627.1047 C.3      501 DG      0.0000
      6 C4'        3.1528    -9.0625  1627.6035 C.3      501 DG      0.0000
      7 O4'        2.8962    -7.7397  1627.1844 O.3      501 DG      0.0000
      8 C3'        3.4094    -9.0014  1629.0957 C.3      501 DG      0.0000
      9 O3'        4.8138    -9.2059  1629.4077 O.3      501 DG      0.0000
     10 C2'        2.8929    -7.6390  1629.5176 C.3      501 DG      0.0000
     11 C1'        3.0142    -6.8099  1628.2619 C.3      501 DG      0.0000
     12 N9         1.9601    -5.7797  1628.2329 N.ar     501 DG      0.0000
     13 C8         0.6103    -5.9064  1628.4618 C.ar     501 DG      0.0000
     14 N7        -0.0574    -4.7784  1628.3721 N.ar     501 DG      0.0000
     15 C5         0.9205    -3.8391  1628.0551 C.ar     501 DG      0.0000
     16 C6         0.8495    -2.4423  1627.8291 C.2      501 DG      0.0000
     17 O6        -0.1447    -1.7162  1627.8504 O.2      501 DG      0.0000
     18 N1         2.0434    -1.8365  1627.5476 N.am     501 DG      0.0000
     19 C2         3.1649    -2.4804  1627.4870 C.2      501 DG      0.0000
     20 N2         4.1194    -1.6867  1627.1902 N.pl3    501 DG      0.0000
     21 N3         3.3369    -3.8525  1627.6957 N.2      501 DG      0.0000
     22 C4         2.1626    -4.4393  1627.9683 C.ar     501 DG      0.0000
     23 H5'        2.5498   -11.0129  1626.9460 H        501 DG      0.0000
     24 H5''       1.6784    -9.6659  1626.1693 H        501 DG      0.0000
     25 H4'        4.0932    -9.3584  1627.1388 H        501 DG      0.0000
     26 H3'        2.8196    -9.7736  1629.5897 H        501 DG      0.0000
     27 H2'        1.8550    -7.7005  1629.8446 H        501 DG      0.0000
     28 H2''       3.5170    -7.2241  1630.3091 H        501 DG      0.0000
     29 H1'        3.9940    -6.3334  1628.2300 H        501 DG      0.0000
     30 H8         0.1401    -6.8504  1628.6948 H        501 DG      0.0000
     31 H1         2.0501    -0.8407  1627.3792 H        501 DG      0.0000
     32 H21        3.9331    -0.7046  1627.0458 H        501 DG      0.0000
     33 H22        5.0610    -2.0407  1627.0997 H        501 DG      0.0000
     34 P          5.4208    -8.9171  1630.8362 P.3      502 DT      0.0000
     35 OP1        6.4282    -9.9139  1631.3479 O.co2    502 DT      0.0000
     36 OP2        4.1976    -9.0905  1631.7549 O.co2    502 DT      0.0000
     37 O5'        5.8718    -7.4344  1630.8648 O.3      502 DT      0.0000
     38 C5'        7.2591    -7.0231  1630.7208 C.3      502 DT      0.0000
     39 C4'        7.2167    -5.5104  1630.7783 C.3      502 DT      0.0000
     40 O4'        5.9297    -5.0024  1630.5032 O.3      502 DT      0.0000
     41 C3'        7.6045    -4.8780  1632.0911 C.3      502 DT      0.0000
     42 O3'        8.8106    -4.1233  1631.9029 O.3      502 DT      0.0000
     43 C2'        6.4335    -3.9774  1632.4833 C.3      502 DT      0.0000
     44 C1'        5.8356    -3.6903  1631.1305 C.3      502 DT      0.0000
     45 N1         4.4152    -3.3533  1631.2272 N.am     502 DT      0.0000
     46 C2         4.0627    -2.0458  1631.0293 C.2      502 DT      0.0000
     47 O2         4.8894    -1.1683  1630.7911 O.2      502 DT      0.0000
     48 N3         2.7308    -1.7400  1631.1103 N.am     502 DT      0.0000
     49 C4         1.7785    -2.6653  1631.3662 C.2      502 DT      0.0000
     50 O4         0.5967    -2.2339  1631.4115 O.2      502 DT      0.0000
     51 C5         2.1661    -4.0292  1631.5659 C.2      502 DT      0.0000
     52 C7         1.1444    -5.0831  1631.8458 C.3      502 DT      0.0000
     53 C6         3.4709    -4.3192  1631.4844 C.2      502 DT      0.0000
     54 H5'        7.8651    -7.4221  1631.5343 H        502 DT      0.0000
     55 H5''       7.6530    -7.3534  1629.7596 H        502 DT      0.0000
     56 H4'        7.8941    -5.1300  1630.0138 H        502 DT      0.0000
     57 H3'        7.7569    -5.6473  1632.8482 H        502 DT      0.0000
     58 H2'        5.7278    -4.4963  1633.1321 H        502 DT      0.0000
     59 H2''       6.7897    -3.0603  1632.9525 H        502 DT      0.0000
     60 H1'        6.4000    -2.9339  1630.5852 H        502 DT      0.0000
     61 H3         2.4468    -0.7806  1630.9728 H        502 DT      0.0000
     62 H6         3.7908    -5.3412  1631.6248 H        502 DT      0.0000
     63 H71        0.9606    -5.6612  1630.9403 H        502 DT      0.0000
     64 H72        0.2167    -4.6121  1632.1706 H        502 DT      0.0000
     65 H73        1.5105    -5.7445  1632.6311 H        502 DT      0.0000
     66 P          9.8120    -4.1940  1633.1828 P.3      503 DG      0.0000
     67 OP1       11.1570    -4.2107  1632.4677 O.co2    503 DG      0.0000
     68 OP2        9.5280    -5.4022  1633.9363 O.co2    503 DG      0.0000
     69 O5'        9.4008    -2.7367  1633.7923 O.3      503 DG      0.0000
     70 C5'        9.3745    -1.7401  1632.7017 C.3      503 DG      0.0000
     71 C4'        8.6816    -0.5152  1633.2218 C.3      503 DG      0.0000
     72 O4'        7.2919    -0.4573  1633.0412 O.3      503 DG      0.0000
     73 C3'        8.9440    -0.2819  1634.7298 C.3      503 DG      0.0000
     74 O3'        9.4621     1.0610  1634.8887 O.3      503 DG      0.0000
     75 C2'        7.6087    -0.5698  1635.3824 C.3      503 DG      0.0000
     76 C1'        6.6319    -0.1236  1634.3008 C.3      503 DG      0.0000
     77 N9         5.3204    -0.7591  1634.4704 N.ar     503 DG      0.0000
     78 C8         5.0340    -2.0535  1634.8066 C.ar     503 DG      0.0000
     79 N7         3.7507    -2.3264  1634.8923 N.ar     503 DG      0.0000
     80 C5         3.1511    -1.1130  1634.5623 C.ar     503 DG      0.0000
     81 C6         1.7777    -0.7480  1634.4680 C.2      503 DG      0.0000
     82 O6         0.7808    -1.4600  1634.6603 O.2      503 DG      0.0000
     83 N1         1.5611     0.5690  1634.1329 N.am     503 DG      0.0000
     84 C2         2.5885     1.4340  1633.9091 C.2      503 DG      0.0000
     85 N2         2.1908     2.6752  1633.6003 N.pl3    503 DG      0.0000
     86 N3         3.8850     1.1408  1633.9802 N.2      503 DG      0.0000
     87 C4         4.0988    -0.1453  1634.3067 C.ar     503 DG      0.0000
     88 H5'       10.3924    -1.4916  1632.4012 H        503 DG      0.0000
     89 H5''       8.8257    -2.1404  1631.8493 H        503 DG      0.0000
     90 H4'        9.1054     0.3375  1632.6912 H        503 DG      0.0000
     91 H3'        9.6833    -1.0000  1635.0846 H        503 DG      0.0000
     92 H2'        7.4965    -1.6308  1635.6053 H        503 DG      0.0000
     93 H2''       7.4840     0.0287  1636.2848 H        503 DG      0.0000
     94 H1'        6.5101     0.9580  1634.3598 H        503 DG      0.0000
     95 H8         5.8007    -2.7925  1634.9872 H        503 DG      0.0000
     96 H1         0.6118     0.9040  1634.0506 H        503 DG      0.0000
     97 H21        1.2056     2.8920  1633.5501 H        503 DG      0.0000
     98 H22        2.8761     3.3943  1633.4177 H        503 DG      0.0000
     99 P          9.9451     1.5929  1636.2771 P.3      504 DA      0.0000
    100 OP1       11.3759     1.3489  1636.6324 O.co2    504 DA      0.0000
    101 OP2        9.0659     0.6449  1637.1728 O.co2    504 DA      0.0000
    102 O5'        9.3291     3.0328  1636.5262 O.3      504 DA      0.0000
    103 C5'        8.8784     3.9259  1635.4972 C.3      504 DA      0.0000
    104 C4'        7.5267     4.4343  1635.9715 C.3      504 DA      0.0000
    105 O4'        6.5576     3.4120  1635.8811 O.3      504 DA      0.0000
    106 C3'        7.4705     4.9745  1637.4005 C.3      504 DA      0.0000
    107 O3'        6.7824     6.2413  1637.4528 O.3      504 DA      0.0000
    108 C2'        6.7226     3.8558  1638.1360 C.3      504 DA      0.0000
    109 C1'        5.7130     3.4903  1637.0584 C.3      504 DA      0.0000
    110 N9         5.0434     2.2059  1637.2868 N.ar     504 DA      0.0000
    111 C8         5.5734     0.9654  1637.5025 C.ar     504 DA      0.0000
    112 N7         4.6726     0.0225  1637.6675 N.ar     504 DA      0.0000
    113 C5         3.4643     0.6887  1637.5273 C.ar     504 DA      0.0000
    114 C6         2.1306     0.2277  1637.5753 C.ar     504 DA      0.0000
    115 N6         1.7778    -1.0411  1637.7950 N.pl3    504 DA      0.0000
    116 N1         1.1757     1.1862  1637.3855 N.ar     504 DA      0.0000
    117 C2         1.5115     2.4788  1637.1677 C.ar     504 DA      0.0000
    118 N3         2.7429     2.9843  1637.1095 N.ar     504 DA      0.0000
    119 C4         3.6697     2.0270  1637.2963 C.ar     504 DA      0.0000
    120 H5'        8.7761     3.3963  1634.5500 H        504 DA      0.0000
    121 H5''       9.5755     4.7569  1635.3894 H        504 DA      0.0000
    122 H4'        7.2223     5.2387  1635.3017 H        504 DA      0.0000
    123 H3'        8.4785     5.0784  1637.8020 H        504 DA      0.0000
    124 H2'        7.3777     3.0199  1638.3815 H        504 DA      0.0000
    125 H2''       6.2239     4.2376  1639.0269 H        504 DA      0.0000
    126 H1'        4.9768     4.2859  1636.9439 H        504 DA      0.0000
    127 H8         6.6363     0.7767  1637.5346 H        504 DA      0.0000
    128 H2         0.6963     3.1731  1637.0264 H        504 DA      0.0000
    129 H61        2.3913    -1.8376  1637.6976 H        504 DA      0.0000
    130 H62        0.8191    -1.3085  1637.6235 H        504 DA      0.0000
    131 P          7.1139     7.3751  1638.5942 P.3      505 DA      0.0000
    132 OP1        7.6143     8.6321  1637.9272 O.co2    505 DA      0.0000
    133 OP2        8.1049     6.6615  1639.4252 O.co2    505 DA      0.0000
    134 O5'        5.6606     7.7640  1639.1251 O.3      505 DA      0.0000
    135 C5'        4.6464     8.3359  1638.3008 C.3      505 DA      0.0000
    136 C4'        3.2974     7.8736  1638.8231 C.3      505 DA      0.0000
    137 O4'        3.2155     6.4766  1638.8512 O.3      505 DA      0.0000
    138 C3'        2.8667     8.3756  1640.1904 C.3      505 DA      0.0000
    139 O3'        1.6967     9.1896  1640.1125 O.3      505 DA      0.0000
    140 C2'        2.7154     7.0940  1641.0191 C.3      505 DA      0.0000
    141 C1'        2.4645     6.0273  1640.0253 C.3      505 DA      0.0000
    142 N9         2.8923     4.6423  1640.2934 N.ar     505 DA      0.0000
    143 C8         4.1555     4.1145  1640.4086 C.ar     505 DA      0.0000
    144 N7         4.1803     2.8137  1640.5778 N.ar     505 DA      0.0000
    145 C5         2.8383     2.4489  1640.5408 C.ar     505 DA      0.0000
    146 C6         2.1966     1.1834  1640.6613 C.ar     505 DA      0.0000
    147 N6         2.8116     0.0230  1640.8529 N.pl3    505 DA      0.0000
    148 N1         0.8277     1.2010  1640.5631 N.ar     505 DA      0.0000
    149 C2         0.1597     2.3760  1640.3740 C.ar     505 DA      0.0000
    150 N3         0.6946     3.5869  1640.2662 N.ar     505 DA      0.0000
    151 C4         2.0392     3.5536  1640.3580 C.ar     505 DA      0.0000
    152 H5'        4.7769     8.0040  1637.2707 H        505 DA      0.0000
    153 H5''       4.7052     9.4233  1638.3467 H        505 DA      0.0000
    154 H4'        2.5484     8.2188  1638.1104 H        505 DA      0.0000
    155 H3'        3.6765     8.9700  1640.6136 H        505 DA      0.0000
    156 H2'        3.6277     6.8895  1641.5794 H        505 DA      0.0000
    157 H2''       1.8678     7.1827  1641.6987 H        505 DA      0.0000
    158 H1'        1.4027     6.0228  1639.7793 H        505 DA      0.0000
    159 H8         5.0501     4.7177  1640.3637 H        505 DA      0.0000
    160 H2        -0.9163     2.3147  1640.3049 H        505 DA      0.0000
    161 H61        3.7658    -0.0338  1641.1791 H        505 DA      0.0000
    162 H62        2.3082    -0.8325  1640.6661 H        505 DA      0.0000
    163 P          1.3655    10.4625  1641.0688 P.3      506 DT      0.0000
    164 OP1        0.7846    11.6248  1640.2715 O.co2    506 DT      0.0000
    165 OP2        2.5104    10.7974  1641.8894 O.co2    506 DT      0.0000
    166 O5'        0.0403     9.9270  1641.8825 O.3      506 DT      0.0000
    167 C5'       -0.8436     9.1853  1640.9374 C.3      506 DT      0.0000
    168 C4'       -1.3101     7.9875  1641.7251 C.3      506 DT      0.0000
    169 O4'       -0.3107     7.0116  1641.9171 O.3      506 DT      0.0000
    170 C3'       -1.7782     8.3688  1643.1417 C.3      506 DT      0.0000
    171 O3'       -3.1888     8.4884  1643.1434 O.3      506 DT      0.0000
    172 C2'       -1.2267     7.2636  1644.0389 C.3      506 DT      0.0000
    173 C1'       -0.8264     6.2199  1643.0743 C.3      506 DT      0.0000
    174 N1         0.2085     5.2563  1643.4141 N.am     506 DT      0.0000
    175 C2        -0.1886     3.9300  1643.5520 C.2      506 DT      0.0000
    176 O2        -1.3741     3.6372  1643.4640 O.2      506 DT      0.0000
    177 N3         0.7682     2.9943  1643.8060 N.am     506 DT      0.0000
    178 C4         2.0921     3.3068  1643.9262 C.2      506 DT      0.0000
    179 O4         2.9232     2.3778  1644.1813 O.2      506 DT      0.0000
    180 C5         2.4804     4.6764  1643.7546 C.2      506 DT      0.0000
    181 C7         3.9287     5.0709  1643.8421 C.3      506 DT      0.0000
    182 C6         1.5329     5.5949  1643.4988 C.2      506 DT      0.0000
    183 H5'       -1.6901     9.8024  1640.6357 H        506 DT      0.0000
    184 H5''      -0.2778     8.8655  1640.0624 H        506 DT      0.0000
    185 H4'       -2.1454     7.5287  1641.1960 H        506 DT      0.0000
    186 H3'       -1.3332     9.3224  1643.4260 H        506 DT      0.0000
    187 H2'       -0.3695     7.6163  1644.6123 H        506 DT      0.0000
    188 H2''      -2.0040     6.8895  1644.7054 H        506 DT      0.0000
    189 H1'       -1.7172     5.6778  1642.7570 H        506 DT      0.0000
    190 H3         0.4870     2.0298  1643.9097 H        506 DT      0.0000
    191 H6         1.8232     6.6254  1643.3567 H        506 DT      0.0000
    192 H71        4.5336     4.1895  1644.0551 H        506 DT      0.0000
    193 H72        4.2440     5.5072  1642.8943 H        506 DT      0.0000
    194 H73        4.0585     5.8022  1644.6399 H        506 DT      0.0000
    195 P         -4.1210     9.0506  1644.2500 P.3      507 DT      0.0000
    196 OP1       -5.4691     9.5114  1643.6379 O.co2    507 DT      0.0000
    197 OP2       -3.3871    10.1783  1644.8799 O.co2    507 DT      0.0000
    198 O5'       -4.5142     7.7705  1645.1323 O.3      507 DT      0.0000
    199 C5'       -5.3896     6.8552  1644.4205 C.3      507 DT      0.0000
    200 C4'       -5.3453     5.5290  1645.0967 C.3      507 DT      0.0000
    201 O4'       -4.0628     4.9149  1645.0734 O.3      507 DT      0.0000
    202 C3'       -5.7994     5.5494  1646.5633 C.3      507 DT      0.0000
    203 O3'       -6.6485     4.4486  1646.8274 O.3      507 DT      0.0000
    204 C2'       -4.4520     5.3597  1647.2997 C.3      507 DT      0.0000
    205 C1'       -3.8814     4.2856  1646.3961 C.3      507 DT      0.0000
    206 N1        -2.4822     4.0413  1646.6938 N.am     507 DT      0.0000
    207 C2        -2.0373     2.7304  1646.7486 C.2      507 DT      0.0000
    208 O2        -2.8439     1.8187  1646.5602 O.2      507 DT      0.0000
    209 N3        -0.7156     2.5072  1647.0145 N.am     507 DT      0.0000
    210 C4         0.1648     3.5244  1647.2215 C.2      507 DT      0.0000
    211 O4         1.3766     3.2415  1647.4448 O.2      507 DT      0.0000
    212 C5        -0.3033     4.8691  1647.1565 C.2      507 DT      0.0000
    213 C7         0.6065     6.0443  1647.3664 C.3      507 DT      0.0000
    214 C6        -1.6043     5.0703  1646.8953 C.2      507 DT      0.0000
    215 H5'       -6.4097     7.2392  1644.4330 H        507 DT      0.0000
    216 H5''      -5.0504     6.7517  1643.3898 H        507 DT      0.0000
    217 H4'       -6.0270     4.8706  1644.5582 H        507 DT      0.0000
    218 H3'       -6.2727     6.4956  1646.8258 H        507 DT      0.0000
    219 H2'       -3.8475     6.2667  1647.2984 H        507 DT      0.0000
    220 H2''      -4.6032     4.9860  1648.3124 H        507 DT      0.0000
    221 H1'       -4.4612     3.3657  1646.4717 H        507 DT      0.0000
    222 H3        -0.3809     1.5553  1647.0589 H        507 DT      0.0000
    223 H6        -1.9722     6.0843  1646.8423 H        507 DT      0.0000
    224 H71        1.6181     5.6904  1647.5653 H        507 DT      0.0000
    225 H72        0.6088     6.6661  1646.4711 H        507 DT      0.0000
    226 H73        0.2532     6.6303  1648.2148 H        507 DT      0.0000
    227 P         -8.0802     4.2402  1647.4353 P.3      508 DC      0.0000
    228 OP1       -9.0834     3.8486  1646.3674 O.co2    508 DC      0.0000
    229 OP2       -8.3765     5.4834  1648.1703 O.co2    508 DC      0.0000
    230 O5'       -7.7301     2.8781  1648.2613 O.3      508 DC      0.0000
    231 C5'       -7.1323     1.9990  1647.2391 C.3      508 DC      0.0000
    232 C4'       -6.7109     0.7365  1647.9356 C.3      508 DC      0.0000
    233 O4'       -5.3397     0.6916  1648.1825 O.3      508 DC      0.0000
    234 C3'       -7.4603     0.4288  1649.2270 C.3      508 DC      0.0000
    235 O3'       -8.0751    -0.8504  1649.1474 O.3      508 DC      0.0000
    236 C2'       -6.3668     0.6428  1650.2758 C.3      508 DC      0.0000
    237 C1'       -5.1071     0.3095  1649.5794 C.3      508 DC      0.0000
    238 N1        -3.9274     1.1145  1649.9115 N.am     508 DC      0.0000
    239 C2        -2.7575     0.4026  1650.1673 C.2      508 DC      0.0000
    240 O2        -2.7444    -0.8322  1650.1718 O.2      508 DC      0.0000
    241 N3        -1.6235     1.1266  1650.4411 N.2      508 DC      0.0000
    242 C4        -1.6296     2.4905  1650.4312 C.2      508 DC      0.0000
    243 N4        -0.4824     3.1004  1650.7081 N.pl3    508 DC      0.0000
    244 C5        -2.8194     3.1988  1650.1532 C.2      508 DC      0.0000
    245 C6        -3.9253     2.4732  1649.8884 C.2      508 DC      0.0000
    246 H5'       -7.8659     1.7723  1646.4654 H        508 DC      0.0000
    247 H5''      -6.2635     2.4847  1646.7949 H        508 DC      0.0000
    248 H4'       -6.9284    -0.0822  1647.2496 H        508 DC      0.0000
    249 H3'       -8.2354     1.1817  1649.3703 H        508 DC      0.0000
    250 H2'       -6.3562     1.6790  1650.6137 H        508 DC      0.0000
    251 H2''      -6.5189    -0.0280  1651.1213 H        508 DC      0.0000
    252 H1'       -4.8874    -0.7550  1649.6604 H        508 DC      0.0000
    253 H5        -2.8430     4.2785  1650.1526 H        508 DC      0.0000
    254 H6        -4.8424     2.9909  1649.6494 H        508 DC      0.0000
    255 H41        0.3441     2.5553  1650.9073 H        508 DC      0.0000
    256 H42       -0.4368     4.1093  1650.7194 H        508 DC      0.0000
    257 P         -9.2664    -1.4054  1650.0994 P.3      509 DA      0.0000
    258 OP1      -10.0132    -2.4601  1649.3057 O.co2    509 DA      0.0000
    259 OP2      -10.1373    -0.2635  1650.4449 O.co2    509 DA      0.0000
    260 O5'       -8.4754    -2.0381  1651.3964 O.3      509 DA      0.0000
    261 C5'       -7.4221    -3.0058  1651.1012 C.3      509 DA      0.0000
    262 C4'       -6.7262    -3.4189  1652.3565 C.3      509 DA      0.0000
    263 O4'       -5.4746    -2.7693  1652.5986 O.3      509 DA      0.0000
    264 C3'       -7.4918    -3.1447  1653.6617 C.3      509 DA      0.0000
    265 O3'       -6.9473    -3.9729  1654.6916 O.3      509 DA      0.0000
    266 C2'       -7.0983    -1.6695  1653.8763 C.3      509 DA      0.0000
    267 C1'       -5.5893    -1.8629  1653.6930 C.3      509 DA      0.0000
    268 N9        -4.9481    -0.5623  1653.5987 N.ar     509 DA      0.0000
    269 C8        -5.4860     0.6895  1653.4829 C.ar     509 DA      0.0000
    270 N7        -4.6066     1.6750  1653.4643 N.ar     509 DA      0.0000
    271 C5        -3.3903     1.0156  1653.5718 C.ar     509 DA      0.0000
    272 C6        -2.0548     1.4871  1653.6063 C.ar     509 DA      0.0000
    273 N6        -1.7069     2.7585  1653.5211 N.pl3    509 DA      0.0000
    274 N1        -1.0844     0.5356  1653.7389 N.ar     509 DA      0.0000
    275 C2        -1.4002    -0.7946  1653.8191 C.ar     509 DA      0.0000
    276 N3        -2.6257    -1.3127  1653.7892 N.ar     509 DA      0.0000
    277 C4        -3.5762    -0.3540  1653.6662 C.ar     509 DA      0.0000
    278 H5'       -7.8635    -3.8840  1650.6300 H        509 DA      0.0000
    279 H5''      -6.6999    -2.5560  1650.4199 H        509 DA      0.0000
    280 H4'       -6.5399    -4.4912  1652.2976 H        509 DA      0.0000
    281 H3'       -8.5679    -3.2758  1653.5480 H        509 DA      0.0000
    282 H2'       -7.5299    -1.0075  1653.1255 H        509 DA      0.0000
    283 H2''      -7.3375    -1.3362  1654.8862 H        509 DA      0.0000
    284 H1'       -5.2051    -2.3619  1654.5827 H        509 DA      0.0000
    285 H8        -6.5501     0.8597  1653.4119 H        509 DA      0.0000
    286 H2        -0.5777    -1.4879  1653.9155 H        509 DA      0.0000
    287 H61       -0.8536     3.2680  1653.7011 H        509 DA      0.0000
    288 H62       -2.4608     3.3524  1653.2063 H        509 DA      0.0000
    289 P         -7.3638    -5.5115  1654.8321 P.3      510 DC      0.0000
    290 OP1       -7.9579    -6.0753  1653.5870 O.co2    510 DC      0.0000
    291 OP2       -8.3367    -5.4737  1655.9750 O.co2    510 DC      0.0000
    292 O5'       -5.9832    -6.2384  1655.1153 O.3      510 DC      0.0000
    293 C5'       -5.0752    -6.5894  1654.0275 C.3      510 DC      0.0000
    294 C4'       -3.7152    -6.5331  1654.7325 C.3      510 DC      0.0000
    295 O4'       -3.4592    -5.1834  1655.0445 O.3      510 DC      0.0000
    296 C3'       -3.6680    -7.3154  1656.0424 C.3      510 DC      0.0000
    297 O3'       -2.5526    -8.2325  1656.1103 O.3      510 DC      0.0000
    298 C2'       -3.6254    -6.2260  1657.1246 C.3      510 DC      0.0000
    299 C1'       -2.9040    -5.1316  1656.4484 C.3      510 DC      0.0000
    300 N1        -3.1355    -3.7333  1656.8013 N.am     510 DC      0.0000
    301 C2        -2.0037    -2.9206  1656.7744 C.2      510 DC      0.0000
    302 O2        -0.8792    -3.3592  1656.5674 O.2      510 DC      0.0000
    303 N3        -2.1795    -1.5959  1657.0275 N.2      510 DC      0.0000
    304 C4        -3.3999    -1.0553  1657.2609 C.2      510 DC      0.0000
    305 N4        -3.4444     0.2555  1657.4918 N.pl3    510 DC      0.0000
    306 C5        -4.5491    -1.8928  1657.2674 C.2      510 DC      0.0000
    307 C6        -4.3679    -3.1989  1657.0180 C.2      510 DC      0.0000
    308 H5'       -5.2827    -7.5878  1653.6427 H        510 DC      0.0000
    309 H5''      -5.1264    -5.8497  1653.2285 H        510 DC      0.0000
    310 H4'       -2.9417    -6.9036  1654.0598 H        510 DC      0.0000
    311 H3'       -4.5943    -7.8801  1656.1483 H        510 DC      0.0000
    312 H2'       -4.6305    -5.9167  1657.4116 H        510 DC      0.0000
    313 H2''      -3.0678    -6.5721  1657.9949 H        510 DC      0.0000
    314 H1'       -1.8344    -5.3414  1656.4352 H        510 DC      0.0000
    315 H5        -5.5322    -1.4922  1657.4659 H        510 DC      0.0000
    316 H6        -5.2302    -3.8484  1656.9882 H        510 DC      0.0000
    317 H41       -2.5935     0.7994  1657.4807 H        510 DC      0.0000
    318 H42       -4.3292     0.7056  1657.6779 H        510 DC      0.0000
    319 P          3.7759     7.6019  1659.0698 P.3      510 DG      0.0000
    320 OP1        4.3759     8.9602  1659.2486 O.co2    510 DG      0.0000
    321 OP2        2.7078     7.5597  1657.9850 O.co2    510 DG      0.0000
    322 O5'        4.9784     6.4972  1658.8626 O.3      510 DG      0.0000
    323 C5'        5.2999     5.5775  1659.9584 C.3      510 DG      0.0000
    324 C4'        5.6244     4.2270  1659.3241 C.3      510 DG      0.0000
    325 O4'        4.4923     3.4063  1659.2283 O.3      510 DG      0.0000
    326 C3'        6.2113     4.3143  1657.9177 C.3      510 DG      0.0000
    327 O3'        7.2665     3.3618  1657.6507 O.3      510 DG      0.0000
    328 C2'        4.9885     4.0690  1657.0154 C.3      510 DG      0.0000
    329 C1'        4.2288     3.0425  1657.8393 C.3      510 DG      0.0000
    330 N9         2.7830     3.1081  1657.5660 N.ar     510 DG      0.0000
    331 C8         2.0025     4.2288  1657.4093 C.ar     510 DG      0.0000
    332 N7         0.7405     3.9706  1657.1909 N.ar     510 DG      0.0000
    333 C5         0.6793     2.5823  1657.2157 C.ar     510 DG      0.0000
    334 C6        -0.4140     1.6890  1657.0592 C.2      510 DG      0.0000
    335 O6        -1.5983     1.9961  1656.8624 O.2      510 DG      0.0000
    336 N1        -0.0756     0.3611  1657.1461 N.am     510 DG      0.0000
    337 C2         1.1947    -0.0577  1657.3668 C.2      510 DG      0.0000
    338 N2         1.3709    -1.3747  1657.4301 N.pl3    510 DG      0.0000
    339 N3         2.2580     0.7400  1657.5245 N.2      510 DG      0.0000
    340 C4         1.9253     2.0428  1657.4412 C.ar     510 DG      0.0000
    341 H5'        6.1608     5.9460  1660.5161 H        510 DG      0.0000
    342 H5''       4.4419     5.4785  1660.6233 H        510 DG      0.0000
    343 H4'        6.3515     3.7231  1659.9608 H        510 DG      0.0000
    344 H3'        6.5868     5.3233  1657.7472 H        510 DG      0.0000
    345 H2'        4.4062     4.9793  1656.8728 H        510 DG      0.0000
    346 H2''       5.2922     3.6487  1656.0567 H        510 DG      0.0000
    347 H1'        4.6061     2.0407  1657.6340 H        510 DG      0.0000
    348 H8         2.3971     5.2328  1657.4620 H        510 DG      0.0000
    349 H1        -0.8027    -0.3319  1657.0413 H        510 DG      0.0000
    350 H21        0.5828    -1.9958  1657.3151 H        510 DG      0.0000
    351 H22        2.2928    -1.7535  1657.5933 H        510 DG      0.0000
    352 P          7.3994     2.8829  1656.1273 P.3      509 DT      0.0000
    353 OP1        8.7969     2.4841  1655.7364 O.co2    509 DT      0.0000
    354 OP2        6.9780     4.1210  1655.4267 O.co2    509 DT      0.0000
    355 O5'        6.4124     1.6276  1655.9964 O.3      509 DT      0.0000
    356 C5'        6.9854     0.3078  1656.2640 C.3      509 DT      0.0000
    357 C4'        6.1800    -0.7258  1655.5069 C.3      509 DT      0.0000
    358 O4'        4.7942    -0.4341  1655.4797 O.3      509 DT      0.0000
    359 C3'        6.6023    -0.8621  1654.0522 C.3      509 DT      0.0000
    360 O3'        6.5773    -2.2185  1653.5571 O.3      509 DT      0.0000
    361 C2'        5.6085     0.0199  1653.3294 C.3      509 DT      0.0000
    362 C1'        4.3519    -0.3335  1654.1075 C.3      509 DT      0.0000
    363 N1         3.4269     0.8008  1653.9562 N.am     509 DT      0.0000
    364 C2         2.0714     0.5068  1654.0630 C.2      509 DT      0.0000
    365 O2         1.6984    -0.6460  1654.2527 O.2      509 DT      0.0000
    366 N3         1.1954     1.5492  1653.9428 N.am     509 DT      0.0000
    367 C4         1.6194     2.8259  1653.7252 C.2      509 DT      0.0000
    368 O4         0.7273     3.7322  1653.6276 O.2      509 DT      0.0000
    369 C5         3.0137     3.0958  1653.6188 C.2      509 DT      0.0000
    370 C7         3.4928     4.5006  1653.3899 C.3      509 DT      0.0000
    371 C6         3.8648     2.0739  1653.7406 C.2      509 DT      0.0000
    372 H5'        8.0228     0.2825  1655.9303 H        509 DT      0.0000
    373 H5''       6.9390     0.0978  1657.3326 H        509 DT      0.0000
    374 H4'        6.3170    -1.6908  1655.9949 H        509 DT      0.0000
    375 H3'        7.6045    -0.4520  1653.9282 H        509 DT      0.0000
    376 H2'        5.8603     1.0765  1653.4209 H        509 DT      0.0000
    377 H2''       5.5157    -0.2711  1652.2830 H        509 DT      0.0000
    378 H1'        3.9086    -1.2655  1653.7568 H        509 DT      0.0000
    379 H3         0.2046     1.3679  1654.0175 H        509 DT      0.0000
    380 H6         4.9259     2.2604  1653.6664 H        509 DT      0.0000
    381 H71        2.6359     5.1707  1653.3212 H        509 DT      0.0000
    382 H72        4.1280     4.8075  1654.2208 H        509 DT      0.0000
    383 H73        4.0628     4.5434  1652.4617 H        509 DT      0.0000
    384 P          8.0195    -2.4809  1652.7787 P.3      508 DG      0.0000
    385 OP1        9.0592    -3.1072  1653.6500 O.co2    508 DG      0.0000
    386 OP2        8.3071    -1.0824  1652.3732 O.co2    508 DG      0.0000
    387 O5'        7.5726    -3.5703  1651.6979 O.3      508 DG      0.0000
    388 C5'        7.4029    -4.9469  1652.1214 C.3      508 DG      0.0000
    389 C4'        5.9956    -5.3213  1651.6737 C.3      508 DG      0.0000
    390 O4'        5.1109    -4.2526  1651.9444 O.3      508 DG      0.0000
    391 C3'        5.8742    -5.6513  1650.1859 C.3      508 DG      0.0000
    392 O3'        5.3245    -6.9399  1649.9774 O.3      508 DG      0.0000
    393 C2'        5.0732    -4.4975  1649.6092 C.3      508 DG      0.0000
    394 C1'        4.2654    -4.0264  1650.7954 C.3      508 DG      0.0000
    395 N9         3.9342    -2.6043  1650.6718 N.ar     508 DG      0.0000
    396 C8         4.7838    -1.5463  1650.5129 C.ar     508 DG      0.0000
    397 N7         4.1753    -0.3880  1650.4349 N.ar     508 DG      0.0000
    398 C5         2.8269    -0.7045  1650.5724 C.ar     508 DG      0.0000
    399 C6         1.6603     0.1047  1650.5819 C.2      508 DG      0.0000
    400 O6         1.6054     1.3263  1650.4828 O.2      508 DG      0.0000
    401 N1         0.4910    -0.5855  1650.7308 N.am     508 DG      0.0000
    402 C2         0.4620    -1.9527  1650.8637 C.2      508 DG      0.0000
    403 N2        -0.7466    -2.4991  1650.9994 N.pl3    508 DG      0.0000
    404 N3         1.5194    -2.7708  1650.8680 N.2      508 DG      0.0000
    405 C4         2.6707    -2.0726  1650.7173 C.ar     508 DG      0.0000
    406 H5'        8.1417    -5.5896  1651.6427 H        508 DG      0.0000
    407 H5''       7.4855    -5.0205  1653.2057 H        508 DG      0.0000
    408 H4'        5.6717    -6.1901  1652.2467 H        508 DG      0.0000
    409 H3'        6.8718    -5.6291  1649.7474 H        508 DG      0.0000
    410 H2'        5.7297    -3.7082  1649.2429 H        508 DG      0.0000
    411 H2''       4.4158    -4.8482  1648.8137 H        508 DG      0.0000
    412 H1'        3.3525    -4.6157  1650.8824 H        508 DG      0.0000
    413 H8         5.8570    -1.6543  1650.4568 H        508 DG      0.0000
    414 H1        -0.3801    -0.0745  1650.7437 H        508 DG      0.0000
    415 H21       -1.5688    -1.9125  1651.0003 H        508 DG      0.0000
    416 H22       -0.8400    -3.4995  1651.1012 H        508 DG      0.0000
    417 P          4.1388    -7.5236  1649.1111 P.3      507 DA      0.0000
    418 OP1        3.4041    -8.6203  1649.8925 O.co2    507 DA      0.0000
    419 OP2        4.7769    -8.0853  1647.9184 O.co2    507 DA      0.0000
    420 O5'        3.0638    -6.3120  1648.9363 O.3      507 DA      0.0000
    421 C5'        2.1492    -6.2256  1650.0928 C.3      507 DA      0.0000
    422 C4'        0.7614    -6.4931  1649.5650 C.3      507 DA      0.0000
    423 O4'        0.0338    -5.3118  1649.3427 O.3      507 DA      0.0000
    424 C3'        0.7650    -7.2268  1648.2245 C.3      507 DA      0.0000
    425 O3'       -0.2294    -8.2202  1648.1493 O.3      507 DA      0.0000
    426 C2'        0.6975    -6.0836  1647.2279 C.3      507 DA      0.0000
    427 C1'        0.0720    -4.9240  1647.9517 C.3      507 DA      0.0000
    428 N9         0.8195    -3.6751  1647.7262 N.ar     507 DA      0.0000
    429 C8         2.1734    -3.4976  1647.5399 C.ar     507 DA      0.0000
    430 N7         2.5341    -2.2502  1647.3440 N.ar     507 DA      0.0000
    431 C5         1.3344    -1.5550  1647.4308 C.ar     507 DA      0.0000
    432 C6         1.0430    -0.1749  1647.3252 C.ar     507 DA      0.0000
    433 N6         1.9568     0.7556  1647.1127 N.pl3    507 DA      0.0000
    434 N1        -0.2682     0.1713  1647.4489 N.ar     507 DA      0.0000
    435 C2        -1.2335    -0.7685  1647.6734 C.ar     507 DA      0.0000
    436 N3        -1.0262    -2.0786  1647.7893 N.ar     507 DA      0.0000
    437 C4         0.2805    -2.4104  1647.6532 C.ar     507 DA      0.0000
    438 H5'        2.4173    -6.9716  1650.8408 H        507 DA      0.0000
    439 H5''       2.1950    -5.2279  1650.5294 H        507 DA      0.0000
    440 H4'        0.2238    -7.1010  1650.2926 H        507 DA      0.0000
    441 H3'        1.7339    -7.7132  1648.1114 H        507 DA      0.0000
    442 H2'        0.0862    -6.3666  1646.3710 H        507 DA      0.0000
    443 H2''       1.7017    -5.8181  1646.8974 H        507 DA      0.0000
    444 H1'       -0.9491    -4.7938  1647.5936 H        507 DA      0.0000
    445 H8         2.8785    -4.3155  1647.5538 H        507 DA      0.0000
    446 H2        -2.2513    -0.4193  1647.7647 H        507 DA      0.0000
    447 H61        1.8187     1.7052  1647.4281 H        507 DA      0.0000
    448 H62        2.8082     0.5131  1646.6265 H        507 DA      0.0000
    449 P         -1.1756    -8.6655  1646.9647 P.3      506 DA      0.0000
    450 OP1       -2.2833    -9.6276  1647.4846 O.co2    506 DA      0.0000
    451 OP2       -0.2790    -9.4158  1646.0310 O.co2    506 DA      0.0000
    452 O5'       -1.9367    -7.3810  1646.4620 O.3      506 DA      0.0000
    453 C5'       -3.2792    -7.1142  1646.9178 C.3      506 DA      0.0000
    454 C4'       -3.7422    -5.8562  1646.2159 C.3      506 DA      0.0000
    455 O4'       -2.7580    -4.8690  1646.0952 O.3      506 DA      0.0000
    456 C3'       -4.2814    -6.1072  1644.8084 C.3      506 DA      0.0000
    457 O3'       -5.6918    -5.8178  1644.7769 O.3      506 DA      0.0000
    458 C2'       -3.3513    -5.2911  1643.9088 C.3      506 DA      0.0000
    459 C1'       -2.8914    -4.1828  1644.8066 C.3      506 DA      0.0000
    460 N9        -1.5871    -3.6012  1644.5070 N.ar     506 DA      0.0000
    461 C8        -0.3746    -4.2299  1644.3123 C.ar     506 DA      0.0000
    462 N7         0.6251    -3.4018  1644.1068 N.ar     506 DA      0.0000
    463 C5         0.0473    -2.1494  1644.1814 C.ar     506 DA      0.0000
    464 C6         0.5886    -0.8511  1644.0479 C.ar     506 DA      0.0000
    465 N6         1.8724    -0.6056  1643.8047 N.pl3    506 DA      0.0000
    466 N1        -0.3101     0.1746  1644.1967 N.ar     506 DA      0.0000
    467 C2        -1.6151    -0.0433  1644.4492 C.ar     506 DA      0.0000
    468 N3        -2.1959    -1.2389  1644.5881 N.ar     506 DA      0.0000
    469 C4        -1.3081    -2.2474  1644.4409 C.ar     506 DA      0.0000
    470 H5'       -3.9337    -7.9476  1646.6627 H        506 DA      0.0000
    471 H5''      -3.2804    -6.9586  1647.9966 H        506 DA      0.0000
    472 H4'       -4.5558    -5.4346  1646.8060 H        506 DA      0.0000
    473 H3'       -4.1442    -7.1626  1644.5734 H        506 DA      0.0000
    474 H2'       -2.5089    -5.8936  1643.5689 H        506 DA      0.0000
    475 H2''      -3.9006    -4.8891  1643.0575 H        506 DA      0.0000
    476 H1'       -3.6505    -3.4030  1644.8677 H        506 DA      0.0000
    477 H8        -0.2577    -5.3035  1644.3272 H        506 DA      0.0000
    478 H2        -2.2486     0.8258  1644.5483 H        506 DA      0.0000
    479 H61        2.2013     0.3030  1644.0987 H        506 DA      0.0000
    480 H62        2.4765    -1.2802  1643.3574 H        506 DA      0.0000
    481 P         -6.4935    -5.9942  1643.3920 P.3      505 DT      0.0000
    482 OP1       -7.9901    -5.9988  1643.4501 O.co2    505 DT      0.0000
    483 OP2       -5.8682    -7.2516  1642.8793 O.co2    505 DT      0.0000
    484 O5'       -6.0579    -4.5473  1642.6888 O.3      505 DT      0.0000
    485 C5'       -6.1079    -3.4968  1643.7011 C.3      505 DT      0.0000
    486 C4'       -6.2598    -2.1753  1643.0182 C.3      505 DT      0.0000
    487 O4'       -5.0522    -1.4980  1642.8378 O.3      505 DT      0.0000
    488 C3'       -6.9338    -2.2521  1641.6569 C.3      505 DT      0.0000
    489 O3'       -7.7925    -1.1366  1641.3896 O.3      505 DT      0.0000
    490 C2'       -5.6900    -2.3467  1640.7636 C.3      505 DT      0.0000
    491 C1'       -4.7746    -1.3250  1641.4036 C.3      505 DT      0.0000
    492 N1        -3.3564    -1.6589  1641.1737 N.am     505 DT      0.0000
    493 C2        -2.4640    -0.6082  1641.0520 C.2      505 DT      0.0000
    494 O2        -2.8486     0.5616  1641.0888 O.2      505 DT      0.0000
    495 N3        -1.1391    -0.9073  1640.8846 N.am     505 DT      0.0000
    496 C4        -0.6920    -2.1908  1640.8361 C.2      505 DT      0.0000
    497 O4         0.5479    -2.3749  1640.6506 O.2      505 DT      0.0000
    498 C5        -1.6234    -3.2564  1640.9845 C.2      505 DT      0.0000
    499 C7        -1.1634    -4.6939  1640.9324 C.3      505 DT      0.0000
    500 C6        -2.9129    -2.9477  1641.1575 C.2      505 DT      0.0000
    501 H5'       -6.9570    -3.6666  1644.3632 H        505 DT      0.0000
    502 H5''      -5.1850    -3.5043  1644.2812 H        505 DT      0.0000
    503 H4'       -6.8879    -1.5525  1643.6552 H        505 DT      0.0000
    504 H3'       -7.5053    -3.1774  1641.5849 H        505 DT      0.0000
    505 H2'       -5.2539    -3.3451  1640.7942 H        505 DT      0.0000
    506 H2''      -5.9289    -2.0618  1639.7390 H        505 DT      0.0000
    507 H1'       -5.0073    -0.3137  1641.0697 H        505 DT      0.0000
    508 H3        -0.4739    -0.1527  1640.7945 H        505 DT      0.0000
    509 H6        -3.6275    -3.7469  1641.2889 H        505 DT      0.0000
    510 H71       -1.3135    -5.0877  1639.9272 H        505 DT      0.0000
    511 H72       -1.7395    -5.2854  1641.6440 H        505 DT      0.0000
    512 H73       -0.1053    -4.7463  1641.1889 H        505 DT      0.0000
    513 P         -8.4659    -1.1036  1639.8997 P.3      504 DT      0.0000
    514 OP1       -9.9781    -1.2821  1640.0477 O.co2    504 DT      0.0000
    515 OP2       -7.8775    -2.3121  1639.2299 O.co2    504 DT      0.0000
    516 O5'       -8.0965     0.2533  1639.2477 O.3      504 DT      0.0000
    517 C5'       -7.8751     1.4468  1639.9991 C.3      504 DT      0.0000
    518 C4'       -6.8990     2.2972  1639.2511 C.3      504 DT      0.0000
    519 O4'       -5.5600     1.8853  1639.1941 O.3      504 DT      0.0000
    520 C3'       -7.2353     2.6461  1637.7851 C.3      504 DT      0.0000
    521 O3'       -6.7038     3.9705  1637.6813 O.3      504 DT      0.0000
    522 C2'       -6.3849     1.6224  1637.0213 C.3      504 DT      0.0000
    523 C1'       -5.1005     1.8315  1637.7970 C.3      504 DT      0.0000
    524 N1        -4.1073     0.7589  1637.6909 N.am     504 DT      0.0000
    525 C2        -2.7697     1.1768  1637.6902 C.2      504 DT      0.0000
    526 O2        -2.4769     2.3735  1637.7333 O.2      504 DT      0.0000
    527 N3        -1.8148     0.2025  1637.6368 N.am     504 DT      0.0000
    528 C4        -2.1178    -1.1253  1637.5770 C.2      504 DT      0.0000
    529 O4        -1.1592    -1.9527  1637.5146 O.2      504 DT      0.0000
    530 C5        -3.4830    -1.5215  1637.5853 C.2      504 DT      0.0000
    531 C7        -3.8341    -2.9934  1637.5239 C.3      504 DT      0.0000
    532 C6        -4.4137    -0.5651  1637.6518 C.2      504 DT      0.0000
    533 H5'       -8.8149     1.9851  1640.1213 H        504 DT      0.0000
    534 H5''      -7.4671     1.1939  1640.9777 H        504 DT      0.0000
    535 H4'       -6.8848     3.2511  1639.7784 H        504 DT      0.0000
    536 H3'       -8.2993     2.5850  1637.5563 H        504 DT      0.0000
    537 H2'       -6.2795     1.8730  1635.9657 H        504 DT      0.0000
    538 H2''      -6.7681     0.6106  1637.1529 H        504 DT      0.0000
    539 H1'       -4.6493     2.7838  1637.5180 H        504 DT      0.0000
    540 H3        -0.8429     0.4770  1637.6417 H        504 DT      0.0000
    541 H6        -5.4535    -0.8561  1637.6755 H        504 DT      0.0000
    542 H71       -2.9193    -3.5840  1637.4750 H        504 DT      0.0000
    543 H72       -4.4383    -3.1859  1636.6373 H        504 DT      0.0000
    544 H73       -4.3979    -3.2700  1638.4148 H        504 DT      0.0000
    545 P         -6.9546     4.9872  1636.5351 P.3      503 DC      0.0000
    546 OP1       -7.3384     6.3370  1637.1442 O.co2    503 DC      0.0000
    547 OP2       -8.1085     4.4423  1635.7532 O.co2    503 DC      0.0000
    548 O5'       -5.5029     4.9913  1635.7957 O.3      503 DC      0.0000
    549 C5'       -4.4429     5.6974  1636.5202 C.3      503 DC      0.0000
    550 C4'       -3.5567     6.3147  1635.4696 C.3      503 DC      0.0000
    551 O4'       -2.4034     5.5440  1635.2244 O.3      503 DC      0.0000
    552 C3'       -4.2142     6.5286  1634.1052 C.3      503 DC      0.0000
    553 O3'       -3.7544     7.6811  1633.3959 O.3      503 DC      0.0000
    554 C2'       -3.8863     5.1953  1633.4191 C.3      503 DC      0.0000
    555 C1'       -2.4959     4.8772  1633.9657 C.3      503 DC      0.0000
    556 N1        -2.3777     3.4048  1634.0835 N.am     503 DC      0.0000
    557 C2        -1.0895     2.8720  1634.1007 C.2      503 DC      0.0000
    558 O2        -0.0927     3.6040  1634.0321 O.2      503 DC      0.0000
    559 N3        -0.9755     1.5119  1634.2040 N.2      503 DC      0.0000
    560 C4        -2.0622     0.6993  1634.2747 C.2      503 DC      0.0000
    561 N4        -1.8994    -0.6217  1634.3766 N.pl3    503 DC      0.0000
    562 C5        -3.3657     1.2690  1634.2496 C.2      503 DC      0.0000
    563 C6        -3.4768     2.6051  1634.1560 C.2      503 DC      0.0000
    564 H5'       -4.8712     6.4721  1637.1561 H        503 DC      0.0000
    565 H5''      -3.8706     4.9931  1637.1241 H        503 DC      0.0000
    566 H4'       -3.2333     7.2881  1635.8384 H        503 DC      0.0000
    567 H3'       -5.2933     6.6022  1634.2394 H        503 DC      0.0000
    568 H2'       -3.8680     5.3042  1632.3347 H        503 DC      0.0000
    569 H2''      -4.5998     4.4262  1633.7151 H        503 DC      0.0000
    570 H1'       -1.7334     5.2581  1633.2863 H        503 DC      0.0000
    571 H5        -4.2443     0.6432  1634.3044 H        503 DC      0.0000
    572 H6        -4.4590     3.0539  1634.1379 H        503 DC      0.0000
    573 H41       -0.9698    -1.0159  1634.3973 H        503 DC      0.0000
    574 H42       -2.7060    -1.2270  1634.4330 H        503 DC      0.0000
    575 P         -3.5483     7.7917  1631.7639 P.3      502 DA      0.0000
    576 OP1       -3.6170     9.2525  1631.3745 O.co2    502 DA      0.0000
    577 OP2       -4.6287     6.9417  1631.1939 O.co2    502 DA      0.0000
    578 O5'       -2.0375     7.3033  1631.5984 O.3      502 DA      0.0000
    579 C5'       -0.9628     8.2090  1632.0638 C.3      502 DA      0.0000
    580 C4'        0.2023     7.7837  1631.1866 C.3      502 DA      0.0000
    581 O4'        0.5356     6.4156  1631.4539 O.3      502 DA      0.0000
    582 C3'       -0.1208     7.8175  1629.6822 C.3      502 DA      0.0000
    583 O3'        1.0578     7.7874  1628.8931 O.3      502 DA      0.0000
    584 C2'       -0.7700     6.4339  1629.4947 C.3      502 DA      0.0000
    585 C1'        0.3461     5.6610  1630.2493 C.3      502 DA      0.0000
    586 N9        -0.1811     4.3081  1630.3948 N.ar     502 DA      0.0000
    587 C8        -1.5088     3.9503  1630.4676 C.ar     502 DA      0.0000
    588 N7        -1.6934     2.6590  1630.5823 N.ar     502 DA      0.0000
    589 C5        -0.3873     2.1376  1630.5759 C.ar     502 DA      0.0000
    590 C6         0.0824     0.7991  1630.6758 C.ar     502 DA      0.0000
    591 N6        -0.7195    -0.2626  1630.7987 N.pl3    502 DA      0.0000
    592 N1         1.4386     0.6743  1630.6407 N.ar     502 DA      0.0000
    593 C2         2.2528     1.7516  1630.5218 C.ar     502 DA      0.0000
    594 N3         1.8808     3.0316  1630.4303 N.ar     502 DA      0.0000
    595 C4         0.5411     3.1422  1630.4578 C.ar     502 DA      0.0000
    596 H5'       -1.2244     9.2538  1631.8971 H        502 DA      0.0000
    597 H5''      -0.7380     8.0313  1633.1155 H        502 DA      0.0000
    598 H4'        1.0652     8.4178  1631.3905 H        502 DA      0.0000
    599 H3'       -0.7879     8.6362  1629.4125 H        502 DA      0.0000
    600 H2'       -1.7444     6.3523  1629.9763 H        502 DA      0.0000
    601 H2''      -0.8158     6.1500  1628.4433 H        502 DA      0.0000
    602 H1'        1.2635     5.6493  1629.6609 H        502 DA      0.0000
    603 H8        -2.3182     4.6645  1630.4336 H        502 DA      0.0000
    604 H2         3.3143     1.5543  1630.4986 H        502 DA      0.0000
    605 H61       -1.7215    -0.1385  1630.8234 H        502 DA      0.0000
    606 H62       -0.3236    -1.1893  1630.8668 H        502 DA      0.0000
    607 P          1.2988     8.8653  1627.7522 P.3      501 DC      0.0000
    608 OP1        1.8741    10.0356  1628.5325 O.co2    501 DC      0.0000
    609 OP2        0.0698     9.2058  1627.0266 O.co2    501 DC      0.0000
    610 O5'        2.3384     8.0460  1626.7763 O.3      501 DC      0.0000
    611 C5'        3.5278     7.4764  1627.4453 C.3      501 DC      0.0000
    612 C4'        3.8510     6.1541  1626.8013 C.3      501 DC      0.0000
    613 O4'        3.2368     5.0406  1627.4384 O.3      501 DC      0.0000
    614 C3'        3.4290     6.0891  1625.3235 C.3      501 DC      0.0000
    615 O3'        4.2874     5.2969  1624.5122 O.3      501 DC      0.0000
    616 C2'        2.0595     5.3524  1625.4891 C.3      501 DC      0.0000
    617 C1'        2.6877     4.2218  1626.3847 C.3      501 DC      0.0000
    618 N1         1.6527     3.2500  1626.6226 N.am     501 DC      0.0000
    619 C2         2.0244     1.9535  1626.9398 C.2      501 DC      0.0000
    620 O2         3.1521     1.4672  1627.0802 O.2      501 DC      0.0000
    621 N3         1.0335     1.0324  1627.1380 N.2      501 DC      0.0000
    622 C4        -0.2904     1.3561  1627.0220 C.2      501 DC      0.0000
    623 N4        -1.2283     0.4206  1627.2381 N.pl3    501 DC      0.0000
    624 C5        -0.6563     2.6903  1626.6924 C.2      501 DC      0.0000
    625 C6         0.3309     3.5732  1626.5006 C.2      501 DC      0.0000
    626 H5'        4.3729     8.1558  1627.3339 H        501 DC      0.0000
    627 H5''       3.3158     7.3262  1628.5039 H        501 DC      0.0000
    628 H4'        4.9309     6.0134  1626.8480 H        501 DC      0.0000
    629 H3'        3.2953     7.0864  1624.9045 H        501 DC      0.0000
    630 H2'        1.3067     5.9473  1626.0062 H        501 DC      0.0000
    631 H2''       1.6896     4.9623  1624.5409 H        501 DC      0.0000
    632 H1'        3.5038     3.7474  1625.8398 H        501 DC      0.0000
    633 H5        -1.6926     2.9803  1626.6002 H        501 DC      0.0000
    634 H6         0.0707     4.5877  1626.2374 H        501 DC      0.0000
    635 H41       -0.9557    -0.5217  1627.4786 H        501 DC      0.0000
    636 H42       -2.2067     0.6589  1627.1601 H        501 DC      0.0000
    637 P         -0.9886    -9.9702  1661.1113 P.3      511 DG      0.0000
    638 OP1       -1.8195   -11.1995  1661.1098 O.co2    511 DG      0.0000
    639 OP2       -1.5894    -9.0306  1662.1670 O.co2    511 DG      0.0000
    640 O5'        0.5806   -10.1635  1661.2897 O.3      511 DG      0.0000
    641 C5'        1.6206   -10.1209  1660.2897 C.3      511 DG      0.0000
    642 C4'        2.7168    -9.2026  1660.7885 C.3      511 DG      0.0000
    643 O4'        2.5236    -7.8690  1660.3694 O.3      511 DG      0.0000
    644 C3'        2.9760    -9.1539  1662.2807 C.3      511 DG      0.0000
    645 O3'        4.3691    -9.4251  1662.5927 O.3      511 DG      0.0000
    646 C2'        2.5251    -7.7683  1662.7026 C.3      511 DG      0.0000
    647 C1'        2.6858    -6.9460  1661.4470 C.3      511 DG      0.0000
    648 N9         1.6821    -5.8667  1661.4179 N.ar     511 DG      0.0000
    649 C8         0.3278    -5.9288  1661.6468 C.ar     511 DG      0.0000
    650 N7        -0.2853    -4.7702  1661.5571 N.ar     511 DG      0.0000
    651 C5         0.7362    -3.8787  1661.2401 C.ar     511 DG      0.0000
    652 C6         0.7320    -2.4800  1661.0142 C.2      511 DG      0.0000
    653 O6        -0.2265    -1.7073  1661.0354 O.2      511 DG      0.0000
    654 N1         1.9534    -1.9319  1660.7327 N.am     511 DG      0.0000
    655 C2         3.0430    -2.6286  1660.6720 C.2      511 DG      0.0000
    656 N2         4.0342    -1.8813  1660.3752 N.pl3    511 DG      0.0000
    657 N3         3.1493    -4.0073  1660.8807 N.2      511 DG      0.0000
    658 C4         1.9484    -4.5375  1661.1533 C.ar     511 DG      0.0000
    659 H5'        2.0215   -11.1221  1660.1310 H        511 DG      0.0000
    660 H5''       1.2153    -9.7350  1659.3544 H        511 DG      0.0000
    661 H4'        3.6421    -9.5431  1660.3238 H        511 DG      0.0000
    662 H3'        2.3501    -9.8970  1662.7747 H        511 DG      0.0000
    663 H2'        1.4855    -7.7802  1663.0296 H        511 DG      0.0000
    664 H2''       3.1683    -7.3836  1663.4941 H        511 DG      0.0000
    665 H1'        3.6873    -6.5168  1661.4150 H        511 DG      0.0000
    666 H8        -0.1869    -6.8493  1661.8799 H        511 DG      0.0000
    667 H1         2.0076    -0.9375  1660.5643 H        511 DG      0.0000
    668 H21        3.8950    -0.8914  1660.2309 H        511 DG      0.0000
    669 H22        4.9578    -2.2798  1660.2848 H        511 DG      0.0000
    670 P          4.9892    -9.1656  1664.0213 P.3      512 DT      0.0000
    671 OP1        5.9479   -10.2093  1664.5329 O.co2    512 DT      0.0000
    672 OP2        3.7591    -9.2805  1664.9399 O.co2    512 DT      0.0000
    673 O5'        5.5105    -7.7060  1664.0498 O.3      512 DT      0.0000
    674 C5'        6.9158    -7.3614  1663.9059 C.3      512 DT      0.0000
    675 C4'        6.9456    -5.8484  1663.9634 C.3      512 DT      0.0000
    676 O4'        5.6843    -5.2796  1663.6882 O.3      512 DT      0.0000
    677 C3'        7.3631    -5.2353  1665.2761 C.3      512 DT      0.0000
    678 O3'        8.6038    -4.5390  1665.0879 O.3      512 DT      0.0000
    679 C2'        6.2364    -4.2798  1665.6683 C.3      512 DT      0.0000
    680 C1'        5.6529    -3.9645  1664.3156 C.3      512 DT      0.0000
    681 N1         4.2502    -3.5601  1664.4122 N.am     512 DT      0.0000
    682 C2         3.9605    -2.2373  1664.2143 C.2      512 DT      0.0000
    683 O2         4.8281    -1.4002  1663.9761 O.2      512 DT      0.0000
    684 N3         2.6447    -1.8683  1664.2954 N.am     512 DT      0.0000
    685 C4         1.6493    -2.7471  1664.5513 C.2      512 DT      0.0000
    686 O4         0.4895    -2.2599  1664.5965 O.2      512 DT      0.0000
    687 C5         1.9714    -4.1280  1664.7510 C.2      512 DT      0.0000
    688 C7         0.9006    -5.1319  1665.0309 C.3      512 DT      0.0000
    689 C6         3.2609    -4.4799  1664.6695 C.2      512 DT      0.0000
    690 H5'        7.5020    -7.7889  1664.7193 H        512 DT      0.0000
    691 H5''       7.2934    -7.7101  1662.9447 H        512 DT      0.0000
    692 H4'        7.6403    -5.5008  1663.1988 H        512 DT      0.0000
    693 H3'        7.4786    -6.0109  1666.0332 H        512 DT      0.0000
    694 H2'        5.5068    -4.7644  1666.3171 H        512 DT      0.0000
    695 H2''       6.6360    -3.3808  1666.1375 H        512 DT      0.0000
    696 H1'        6.2528    -3.2359  1663.7703 H        512 DT      0.0000
    697 H3         2.4068    -0.8964  1664.1579 H        512 DT      0.0000
    698 H6         3.5317    -5.5160  1664.8098 H        512 DT      0.0000
    699 H71        0.6894    -5.7006  1664.1253 H        512 DT      0.0000
    700 H72       -0.0036    -4.6172  1665.3556 H        512 DT      0.0000
    701 H73        1.2347    -5.8100  1665.8162 H        512 DT      0.0000
    702 P          9.6007    -4.6574  1666.3678 P.3      513 DG      0.0000
    703 OP1       10.9434    -4.7382  1665.6528 O.co2    513 DG      0.0000
    704 OP2        9.2594    -5.8507  1667.1214 O.co2    513 DG      0.0000
    705 O5'        9.2595    -3.1821  1666.9774 O.3      513 DG      0.0000
    706 C5'        9.2808    -2.1854  1665.8868 C.3      513 DG      0.0000
    707 C4'        8.6471    -0.9288  1666.4068 C.3      513 DG      0.0000
    708 O4'        7.2617    -0.8047  1666.2262 O.3      513 DG      0.0000
    709 C3'        8.9204    -0.7083  1667.9148 C.3      513 DG      0.0000
    710 O3'        9.5020     0.6084  1668.0737 O.3      513 DG      0.0000
    711 C2'        7.5729    -0.9322  1668.5674 C.3      513 DG      0.0000
    712 C1'        6.6184    -0.4398  1667.4859 C.3      513 DG      0.0000
    713 N9         5.2782    -1.0121  1667.6554 N.ar     513 DG      0.0000
    714 C8         4.9303    -2.2913  1667.9916 C.ar     513 DG      0.0000
    715 N7         3.6354    -2.5027  1668.0773 N.ar     513 DG      0.0000
    716 C5         3.0944    -1.2621  1667.7473 C.ar     513 DG      0.0000
    717 C6         1.7400    -0.8320  1667.6530 C.2      513 DG      0.0000
    718 O6         0.7103    -1.4955  1667.8453 O.2      513 DG      0.0000
    719 N1         1.5865     0.4939  1667.3179 N.am     513 DG      0.0000
    720 C2         2.6540     1.3088  1667.0942 C.2      513 DG      0.0000
    721 N2         2.3160     2.5676  1666.7854 N.pl3    513 DG      0.0000
    722 N3         3.9350     0.9542  1667.1652 N.2      513 DG      0.0000
    723 C4         4.0872    -0.3407  1667.4918 C.ar     513 DG      0.0000
    724 H5'       10.3094    -1.9857  1665.5863 H        513 DG      0.0000
    725 H5''       8.7135    -2.5590  1665.0344 H        513 DG      0.0000
    726 H4'        9.1111    -0.0973  1665.8762 H        513 DG      0.0000
    727 H3'        9.6246    -1.4609  1668.2696 H        513 DG      0.0000
    728 H2'        7.4102    -1.9866  1668.7904 H        513 DG      0.0000
    729 H2''       7.4769    -0.3284  1669.4698 H        513 DG      0.0000
    730 H1'        6.5484     0.6463  1667.5448 H        513 DG      0.0000
    731 H8         5.6608    -3.0660  1668.1722 H        513 DG      0.0000
    732 H1         0.6542     0.8738  1667.2356 H        513 DG      0.0000
    733 H21        1.3422     2.8312  1666.7351 H        513 DG      0.0000
    734 H22        3.0348     3.2533  1666.6027 H        513 DG      0.0000
    735 P         10.0097     1.1166  1669.4621 P.3      514 DA      0.0000
    736 OP1       11.4273     0.8046  1669.8175 O.co2    514 DA      0.0000
    737 OP2        9.0864     0.2116  1670.3579 O.co2    514 DA      0.0000
    738 O5'        9.4632     2.5842  1669.7112 O.3      514 DA      0.0000
    739 C5'        9.0556     3.4978  1668.6822 C.3      514 DA      0.0000
    740 C4'        7.7297     4.0702  1669.1565 C.3      514 DA      0.0000
    741 O4'        6.7129     3.0952  1669.0661 O.3      514 DA      0.0000
    742 C3'        7.6993     4.6124  1670.5856 C.3      514 DA      0.0000
    743 O3'        7.0725     5.9106  1670.6378 O.3      514 DA      0.0000
    744 C2'        6.8989     3.5306  1671.3210 C.3      514 DA      0.0000
    745 C1'        5.8730     3.2137  1670.2434 C.3      514 DA      0.0000
    746 N9         5.1429     1.9627  1670.4718 N.ar     514 DA      0.0000
    747 C8         5.6131     0.6984  1670.6876 C.ar     514 DA      0.0000
    748 N7         4.6684    -0.2004  1670.8525 N.ar     514 DA      0.0000
    749 C5         3.4932     0.5226  1670.7124 C.ar     514 DA      0.0000
    750 C6         2.1390     0.1257  1670.7603 C.ar     514 DA      0.0000
    751 N6         1.7261    -1.1248  1670.9801 N.pl3    514 DA      0.0000
    752 N1         1.2310     1.1288  1670.5705 N.ar     514 DA      0.0000
    753 C2         1.6280     2.4038  1670.3528 C.ar     514 DA      0.0000
    754 N3         2.8822     2.8501  1670.2945 N.ar     514 DA      0.0000
    755 C4         3.7622     1.8496  1670.4814 C.ar     514 DA      0.0000
    756 H5'        8.9281     2.9737  1667.7350 H        514 DA      0.0000
    757 H5''       9.7915     4.2947  1668.5744 H        514 DA      0.0000
    758 H4'        7.4640     4.8881  1668.4867 H        514 DA      0.0000
    759 H3'        8.7112     4.6681  1670.9870 H        514 DA      0.0000
    760 H2'        7.5134     2.6645  1671.5665 H        514 DA      0.0000
    761 H2''       6.4190     3.9358  1672.2119 H        514 DA      0.0000
    762 H1'        5.1756     4.0435  1670.1289 H        514 DA      0.0000
    763 H8         6.6658     0.4592  1670.7197 H        514 DA      0.0000
    764 H2         0.8469     3.1362  1670.2114 H        514 DA      0.0000
    765 H61        2.3009    -1.9496  1670.8827 H        514 DA      0.0000
    766 H62        0.7557    -1.3461  1670.8086 H        514 DA      0.0000
    767 P          7.4576     7.0273  1671.7793 P.3      515 DA      0.0000
    768 OP1        8.0175     8.2590  1671.1122 O.co2    515 DA      0.0000
    769 OP2        8.4135     6.2672  1672.6102 O.co2    515 DA      0.0000
    770 O5'        6.0246     7.4851  1672.3101 O.3      515 DA      0.0000
    771 C5'        5.0388     8.1047  1671.4858 C.3      515 DA      0.0000
    772 C4'        3.6693     7.7074  1672.0081 C.3      515 DA      0.0000
    773 O4'        3.5209     6.3159  1672.0363 O.3      515 DA      0.0000
    774 C3'        3.2631     8.2293  1673.3754 C.3      515 DA      0.0000
    775 O3'        2.1332     9.0982  1673.2976 O.3      515 DA      0.0000
    776 C2'        3.0508     6.9564  1674.2042 C.3      515 DA      0.0000
    777 C1'        2.7493     5.9029  1673.2103 C.3      515 DA      0.0000
    778 N9         3.1105     4.4990  1673.4784 N.ar     515 DA      0.0000
    779 C8         4.3471     3.9115  1673.5936 C.ar     515 DA      0.0000
    780 N7         4.3098     2.6110  1673.7629 N.ar     515 DA      0.0000
    781 C5         2.9519     2.3107  1673.7259 C.ar     515 DA      0.0000
    782 C6         2.2505     1.0772  1673.8463 C.ar     515 DA      0.0000
    783 N6         2.8095    -0.1112  1674.0380 N.pl3    515 DA      0.0000
    784 N1         0.8841     1.1602  1673.7482 N.ar     515 DA      0.0000
    785 C2         0.2729     2.3656  1673.5591 C.ar     515 DA      0.0000
    786 N3         0.8649     3.5496  1673.4512 N.ar     515 DA      0.0000
    787 C4         2.2065     3.4523  1673.5431 C.ar     515 DA      0.0000
    788 H5'        5.1534     7.7670  1670.4558 H        515 DA      0.0000
    789 H5''       5.1494     9.1881  1671.5318 H        515 DA      0.0000
    790 H4'        2.9376     8.0879  1671.2954 H        515 DA      0.0000
    791 H3'        4.1003     8.7843  1673.7986 H        515 DA      0.0000
    792 H2'        3.9523     6.7086  1674.7644 H        515 DA      0.0000
    793 H2''       2.2084     7.0854  1674.8837 H        515 DA      0.0000
    794 H1'        1.6884     5.9490  1672.9643 H        515 DA      0.0000
    795 H8         5.2695     4.4714  1673.5487 H        515 DA      0.0000
    796 H2        -0.8048     2.3558  1673.4899 H        515 DA      0.0000
    797 H61        3.7599    -0.2134  1674.3642 H        515 DA      0.0000
    798 H62        2.2659    -0.9417  1673.8512 H        515 DA      0.0000
    799 P          1.8631    10.3854  1674.2538 P.3      516 DT      0.0000
    800 OP1        1.3383    11.5741  1673.4565 O.co2    516 DT      0.0000
    801 OP2        3.0227    10.6654  1675.0744 O.co2    516 DT      0.0000
    802 O5'        0.5139     9.9138  1675.0675 O.3      516 DT      0.0000
    803 C5'       -0.4044     9.2151  1674.1224 C.3      516 DT      0.0000
    804 C4'       -0.9276     8.0409  1674.9101 C.3      516 DT      0.0000
    805 O4'        0.0242     7.0185  1675.1021 O.3      516 DT      0.0000
    806 C3'       -1.3769     8.4441  1676.3267 C.3      516 DT      0.0000
    807 O3'       -2.7802     8.6309  1676.3284 O.3      516 DT      0.0000
    808 C2'       -0.8788     7.3139  1677.2240 C.3      516 DT      0.0000
    809 C1'       -0.5287     6.2522  1676.2594 C.3      516 DT      0.0000
    810 N1         0.4590     5.2404  1676.5991 N.am     516 DT      0.0000
    811 C2        -0.0009     3.9345  1676.7371 C.2      516 DT      0.0000
    812 O2        -1.1990     3.6986  1676.6490 O.2      516 DT      0.0000
    813 N3         0.9102     2.9542  1676.9910 N.am     516 DT      0.0000
    814 C4         2.2475     3.2033  1677.1112 C.2      516 DT      0.0000
    815 O4         3.0333     2.2356  1677.3664 O.2      516 DT      0.0000
    816 C5         2.7007     4.5527  1676.9396 C.2      516 DT      0.0000
    817 C7         4.1661     4.8776  1677.0271 C.3      516 DT      0.0000
    818 C6         1.7981     5.5154  1676.6838 C.2      516 DT      0.0000
    819 H5'       -1.2205     9.8718  1673.8208 H        516 DT      0.0000
    820 H5''       0.1455     8.8687  1673.2474 H        516 DT      0.0000
    821 H4'       -1.7838     7.6224  1674.3810 H        516 DT      0.0000
    822 H3'       -0.8869     9.3754  1676.6111 H        516 DT      0.0000
    823 H2'       -0.0057     7.6252  1677.7974 H        516 DT      0.0000
    824 H2''      -1.6730     6.9773  1677.8904 H        516 DT      0.0000
    825 H1'       -1.4444     5.7533  1675.9420 H        516 DT      0.0000
    826 H3         0.5833     2.0042  1677.0948 H        516 DT      0.0000
    827 H6         2.1372     6.5309  1676.5417 H        516 DT      0.0000
    828 H71        4.7283     3.9685  1677.2402 H        516 DT      0.0000
    829 H72        4.5019     5.2985  1676.0793 H        516 DT      0.0000
    830 H73        4.3307     5.6019  1677.8249 H        516 DT      0.0000
    831 P         -3.6845     9.2369  1677.4350 P.3      517 DT      0.0000
    832 OP1       -5.0091     9.7615  1676.8229 O.co2    517 DT      0.0000
    833 OP2       -2.8976    10.3284  1678.0650 O.co2    517 DT      0.0000
    834 O5'       -4.1383     7.9770  1678.3173 O.3      517 DT      0.0000
    835 C5'       -5.0564     7.1045  1677.6056 C.3      517 DT      0.0000
    836 C4'       -5.0755     5.7777  1678.2817 C.3      517 DT      0.0000
    837 O4'       -3.8236     5.1032  1678.2584 O.3      517 DT      0.0000
    838 C3'       -5.5281     5.8198  1679.7484 C.3      517 DT      0.0000
    839 O3'       -6.4287     4.7608  1680.0124 O.3      517 DT      0.0000
    840 C2'       -4.1912     5.5660  1680.4847 C.3      517 DT      0.0000
    841 C1'       -3.6726     4.4659  1679.5811 C.3      517 DT      0.0000
    842 N1        -2.2866     4.1552  1679.8788 N.am     517 DT      0.0000
    843 C2        -1.9047     2.8245  1679.9336 C.2      517 DT      0.0000
    844 O2        -2.7539     1.9523  1679.7452 O.2      517 DT      0.0000
    845 N3        -0.5952     2.5384  1680.1996 N.am     517 DT      0.0000
    846 C4         0.3328     3.5125  1680.4066 C.2      517 DT      0.0000
    847 O4         1.5297     3.1721  1680.6299 O.2      517 DT      0.0000
    848 C5        -0.0706     4.8780  1680.3415 C.2      517 DT      0.0000
    849 C7         0.8942     6.0085  1680.5514 C.3      517 DT      0.0000
    850 C6        -1.3605     5.1410  1680.0804 C.2      517 DT      0.0000
    851 H5'       -6.0570     7.5368  1677.6180 H        517 DT      0.0000
    852 H5''      -4.7225     6.9850  1676.5749 H        517 DT      0.0000
    853 H4'       -5.7877     5.1526  1677.7432 H        517 DT      0.0000
    854 H3'       -5.9556     6.7875  1680.0108 H        517 DT      0.0000
    855 H2'       -3.5441     6.4431  1680.4835 H        517 DT      0.0000
    856 H2''      -4.3601     5.2000  1681.4974 H        517 DT      0.0000
    857 H1'       -4.2956     3.5747  1679.6568 H        517 DT      0.0000
    858 H3        -0.3062     1.5717  1680.2440 H        517 DT      0.0000
    859 H6        -1.6797     6.1714  1680.0273 H        517 DT      0.0000
    860 H71        1.8877     5.6068  1680.7503 H        517 DT      0.0000
    861 H72        0.9262     6.6294  1679.6561 H        517 DT      0.0000
    862 H73        0.5692     6.6107  1681.3998 H        517 DT      0.0000
    863 P         -7.8687     4.6209  1680.6204 P.3      518 DC      0.0000
    864 OP1       -8.8894     4.2775  1679.5524 O.co2    518 DC      0.0000
    865 OP2       -8.1054     5.8768  1681.3553 O.co2    518 DC      0.0000
    866 O5'       -7.5840     3.2437  1681.4464 O.3      518 DC      0.0000
    867 C5'       -7.0288     2.3370  1680.4241 C.3      518 DC      0.0000
    868 C4'       -6.6681     1.0558  1681.1206 C.3      518 DC      0.0000
    869 O4'       -5.3006     0.9455  1681.3675 O.3      518 DC      0.0000
    870 C3'       -7.4314     0.7842  1682.4121 C.3      518 DC      0.0000
    871 O3'       -8.1065    -0.4642  1682.3324 O.3      518 DC      0.0000
    872 C2'       -6.3288     0.9458  1683.4608 C.3      518 DC      0.0000
    873 C1'       -5.0865     0.5529  1682.7644 C.3      518 DC      0.0000
    874 N1        -3.8697     1.3006  1683.0965 N.am     518 DC      0.0000
    875 C2        -2.7351     0.5337  1683.3523 C.2      518 DC      0.0000
    876 O2        -2.7810    -0.7003  1683.3568 O.2      518 DC      0.0000
    877 N3        -1.5679     1.2028  1683.6262 N.2      518 DC      0.0000
    878 C4        -1.5090     2.5654  1683.6163 C.2      518 DC      0.0000
    879 N4        -0.3339     3.1199  1683.8931 N.pl3    518 DC      0.0000
    880 C5        -2.6636     3.3296  1683.3382 C.2      518 DC      0.0000
    881 C6        -3.8028     2.6576  1683.0734 C.2      518 DC      0.0000
    882 H5'       -7.7724     2.1455  1679.6505 H        518 DC      0.0000
    883 H5''      -6.1378     2.7807  1679.9799 H        518 DC      0.0000
    884 H4'       -6.9244     0.2485  1680.4347 H        518 DC      0.0000
    885 H3'       -8.1696     1.5732  1682.5554 H        518 DC      0.0000
    886 H2'       -6.2689     1.9804  1683.7987 H        518 DC      0.0000
    887 H2''      -6.5128     0.2830  1684.3064 H        518 DC      0.0000
    888 H1'       -4.9178    -0.5210  1682.8454 H        518 DC      0.0000
    889 H5        -2.6356     4.4093  1683.3376 H        518 DC      0.0000
    890 H6        -4.6942     3.2185  1682.8344 H        518 DC      0.0000
    891 H41        0.4657     2.5359  1684.0923 H        518 DC      0.0000
    892 H42       -0.2402     4.1255  1683.9044 H        518 DC      0.0000
    893 P         -9.3229    -0.9617  1683.2844 P.3      519 DA      0.0000
    894 OP1      -10.1192    -1.9795  1682.4907 O.co2    519 DA      0.0000
    895 OP2      -10.1384     0.2204  1683.6300 O.co2    519 DA      0.0000
    896 O5'       -8.5630    -1.6314  1684.5814 O.3      519 DA      0.0000
    897 C5'       -7.5571    -2.6483  1684.2862 C.3      519 DA      0.0000
    898 C4'       -6.8816    -3.0941  1685.5415 C.3      519 DA      0.0000
    899 O4'       -5.6005    -2.5049  1685.7836 O.3      519 DA      0.0000
    900 C3'       -7.6333    -2.7837  1686.8467 C.3      519 DA      0.0000
    901 O3'       -7.1289    -3.6369  1687.8767 O.3      519 DA      0.0000
    902 C2'       -7.1699    -1.3289  1687.0613 C.3      519 DA      0.0000
    903 C1'       -5.6718    -1.5941  1686.8781 C.3      519 DA      0.0000
    904 N9        -4.9693    -0.3256  1686.7837 N.ar     519 DA      0.0000
    905 C8        -5.4468     0.9504  1686.6679 C.ar     519 DA      0.0000
    906 N7        -4.5214     1.8929  1686.6493 N.ar     519 DA      0.0000
    907 C5        -3.3380     1.1762  1686.7568 C.ar     519 DA      0.0000
    908 C6        -1.9815     1.5834  1686.7914 C.ar     519 DA      0.0000
    909 N6        -1.5734     2.8368  1686.7061 N.pl3    519 DA      0.0000
    910 N1        -1.0576     0.5867  1686.9239 N.ar     519 DA      0.0000
    911 C2        -1.4365    -0.7269  1687.0041 C.ar     519 DA      0.0000
    912 N3        -2.6854    -1.1860  1686.9743 N.ar     519 DA      0.0000
    913 C4        -3.5890    -0.1830  1686.8513 C.ar     519 DA      0.0000
    914 H5'       -8.0399    -3.5044  1683.8151 H        519 DA      0.0000
    915 H5''      -6.8142    -2.2334  1683.6049 H        519 DA      0.0000
    916 H4'       -6.7467    -4.1741  1685.4826 H        519 DA      0.0000
    917 H3'       -8.7144    -2.8633  1686.7331 H        519 DA      0.0000
    918 H2'       -7.5694    -0.6471  1686.3106 H        519 DA      0.0000
    919 H2''      -7.3929    -0.9846  1688.0712 H        519 DA      0.0000
    920 H1'       -5.3119    -2.1109  1687.7677 H        519 DA      0.0000
    921 H8        -6.5016     1.1712  1686.5969 H        519 DA      0.0000
    922 H2        -0.6481    -1.4587  1687.1006 H        519 DA      0.0000
    923 H61       -0.6967     3.3050  1686.8862 H        519 DA      0.0000
    924 H62       -2.2980     3.4660  1686.3914 H        519 DA      0.0000
    925 P         -7.6184    -5.1539  1688.0171 P.3      520 DC      0.0000
    926 OP1       -8.2387    -5.6887  1686.7720 O.co2    520 DC      0.0000
    927 OP2       -8.5884    -5.0697  1689.1600 O.co2    520 DC      0.0000
    928 O5'       -6.2740    -5.9458  1688.3003 O.3      520 DC      0.0000
    929 C5'       -5.3838    -6.3398  1687.2126 C.3      520 DC      0.0000
    930 C4'       -4.0227    -6.3484  1687.9175 C.3      520 DC      0.0000
    931 O4'       -3.7025    -5.0125  1688.2295 O.3      520 DC      0.0000
    932 C3'       -4.0128    -7.1321  1689.2274 C.3      520 DC      0.0000
    933 O3'       -2.9424    -8.1013  1689.2953 O.3      520 DC      0.0000
    934 C2'       -3.9183    -6.0459  1690.3096 C.3      520 DC      0.0000
    935 C1'       -3.1455    -4.9872  1689.6335 C.3      520 DC      0.0000
    936 N1        -3.3101    -3.5794  1689.9863 N.am     520 DC      0.0000
    937 C2        -2.1408    -2.8217  1689.9594 C.2      520 DC      0.0000
    938 O2        -1.0385    -3.3134  1689.7525 O.2      520 DC      0.0000
    939 N3        -2.2532    -1.4901  1690.2125 N.2      520 DC      0.0000
    940 C4        -3.4463    -0.8919  1690.4459 C.2      520 DC      0.0000
    941 N4        -3.4283     0.4195  1690.6768 N.pl3    520 DC      0.0000
    942 C5        -4.6343    -1.6736  1690.4524 C.2      520 DC      0.0000
    943 C6        -4.5156    -2.9869  1690.2030 C.2      520 DC      0.0000
    944 H5'       -5.6387    -7.3272  1686.8277 H        520 DC      0.0000
    945 H5''      -5.3996    -5.5985  1686.4136 H        520 DC      0.0000
    946 H4'       -3.2677    -6.7554  1687.2449 H        520 DC      0.0000
    947 H3'       -4.9650    -7.6519  1689.3333 H        520 DC      0.0000
    948 H2'       -4.9075    -5.6891  1690.5966 H        520 DC      0.0000
    949 H2''      -3.3779    -6.4183  1691.1799 H        520 DC      0.0000
    950 H1'       -2.0872    -5.2478  1689.6202 H        520 DC      0.0000
    951 H5        -5.5971    -1.2265  1690.6509 H        520 DC      0.0000
    952 H6        -5.4079    -3.5945  1690.1733 H        520 DC      0.0000
    953 H41       -2.5524     0.9222  1690.6658 H        520 DC      0.0000
    954 H42       -4.2906     0.9114  1690.8630 H        520 DC      0.0000
    955 P          4.1343     7.4131  1692.2548 P.3      520 DG      0.0000
    956 OP1        4.7984     8.7412  1692.4336 O.co2    520 DG      0.0000
    957 OP2        3.0654     7.4219  1691.1700 O.co2    520 DG      0.0000
    958 O5'        5.2827     6.2523  1692.0476 O.3      520 DG      0.0000
    959 C5'        5.5600     5.3183  1693.1434 C.3      520 DG      0.0000
    960 C4'        5.8196     3.9539  1692.5091 C.3      520 DG      0.0000
    961 O4'        4.6497     3.1881  1692.4133 O.3      520 DG      0.0000
    962 C3'        6.4101     4.0131  1691.1028 C.3      520 DG      0.0000
    963 O3'        7.4186     3.0113  1690.8358 O.3      520 DG      0.0000
    964 C2'        5.1769     3.8263  1690.2005 C.3      520 DG      0.0000
    965 C1'        4.3692     2.8373  1691.0243 C.3      520 DG      0.0000
    966 N9         2.9281     2.9718  1690.7510 N.ar     520 DG      0.0000
    967 C8         2.2020     4.1285  1690.5943 C.ar     520 DG      0.0000
    968 N7         0.9291     3.9308  1690.3759 N.ar     520 DG      0.0000
    969 C5         0.8017     2.5470  1690.4007 C.ar     520 DG      0.0000
    970 C6        -0.3329     1.7068  1690.2443 C.2      520 DG      0.0000
    971 O6        -1.5013     2.0701  1690.0474 O.2      520 DG      0.0000
    972 N1        -0.0583     0.3643  1690.3312 N.am     520 DG      0.0000
    973 C2         1.1906    -0.1147  1690.5519 C.2      520 DG      0.0000
    974 N2         1.3038    -1.4385  1690.6152 N.pl3    520 DG      0.0000
    975 N3         2.2907     0.6315  1690.7096 N.2      520 DG      0.0000
    976 C4         2.0205     1.9486  1690.6263 C.ar     520 DG      0.0000
    977 H5'        6.4375     5.6453  1693.7012 H        520 DG      0.0000
    978 H5''       4.6982     5.2603  1693.8083 H        520 DG      0.0000
    979 H4'        6.5219     3.4158  1693.1458 H        520 DG      0.0000
    980 H3'        6.8332     5.0030  1690.9323 H        520 DG      0.0000
    981 H2'        4.6387     4.7634  1690.0578 H        520 DG      0.0000
    982 H2''       5.4602     3.3921  1689.2417 H        520 DG      0.0000
    983 H1'        4.6982     1.8186  1690.8191 H        520 DG      0.0000
    984 H8         2.6440     5.1124  1690.6471 H        520 DG      0.0000
    985 H1        -0.8177    -0.2933  1690.2264 H        520 DG      0.0000
    986 H21        0.4869    -2.0213  1690.5001 H        520 DG      0.0000
    987 H22        2.2066    -1.8609  1690.7784 H        520 DG      0.0000
    988 P          7.5285     2.5266  1689.3123 P.3      519 DT      0.0000
    989 OP1        8.9054     2.0615  1688.9214 O.co2    519 DT      0.0000
    990 OP2        7.1667     3.7834  1688.6118 O.co2    519 DT      0.0000
    991 O5'        6.4827     1.3198  1689.1814 O.3      519 DT      0.0000
    992 C5'        6.9921    -0.0259  1689.4490 C.3      519 DT      0.0000
    993 C4'        6.1384    -1.0198  1688.6920 C.3      519 DT      0.0000
    994 O4'        4.7681    -0.6623  1688.6647 O.3      519 DT      0.0000
    995 C3'        6.5536    -1.1761  1687.2373 C.3      519 DT      0.0000
    996 O3'        6.4640    -2.5298  1686.7422 O.3      519 DT      0.0000
    997 C2'        5.6031    -0.2477  1686.5144 C.3      519 DT      0.0000
    998 C1'        4.3310    -0.5407  1687.2925 C.3      519 DT      0.0000
    999 N1         3.4612     0.6364  1687.1412 N.am     519 DT      0.0000
   1000 C2         2.0932     0.4074  1687.2480 C.2      519 DT      0.0000
   1001 O2         1.6656    -0.7262  1687.4377 O.2      519 DT      0.0000
   1002 N3         1.2679     1.4904  1687.1278 N.am     519 DT      0.0000
   1003 C4         1.7524     2.7454  1686.9102 C.2      519 DT      0.0000
   1004 O4         0.9045     3.6932  1686.8127 O.2      519 DT      0.0000
   1005 C5         3.1580     2.9485  1686.8039 C.2      519 DT      0.0000
   1006 C7         3.7036     4.3289  1686.5749 C.3      519 DT      0.0000
   1007 C6         3.9593     1.8871  1686.9256 C.2      519 DT      0.0000
   1008 H5'        8.0271    -0.1006  1689.1153 H        519 DT      0.0000
   1009 H5''       6.9358    -0.2333  1690.5176 H        519 DT      0.0000
   1010 H4'        6.2292    -1.9902  1689.1799 H        519 DT      0.0000
   1011 H3'        7.5743    -0.8143  1687.1133 H        519 DT      0.0000
   1012 H2'        5.9050     0.7957  1686.6060 H        519 DT      0.0000
   1013 H2''       5.4965    -0.5339  1685.4680 H        519 DT      0.0000
   1014 H1'        3.8438    -1.4505  1686.9419 H        519 DT      0.0000
   1015 H3         0.2696     1.3566  1687.2025 H        519 DT      0.0000
   1016 H6         5.0282     2.0229  1686.8515 H        519 DT      0.0000
   1017 H71        2.8796     5.0390  1686.5062 H        519 DT      0.0000
   1018 H72        4.3527     4.6051  1687.4058 H        519 DT      0.0000
   1019 H73        4.2750     4.3444  1685.6468 H        519 DT      0.0000
   1020 P          7.8920    -2.8607  1685.9638 P.3      518 DG      0.0000
   1021 OP1        8.9006    -3.5359  1686.8350 O.co2    518 DG      0.0000
   1022 OP2        8.2460    -1.4775  1685.5582 O.co2    518 DG      0.0000
   1023 O5'        7.3936    -3.9275  1684.8830 O.3      518 DG      0.0000
   1024 C5'        7.1585    -5.2944  1685.3064 C.3      518 DG      0.0000
   1025 C4'        5.7349    -5.6013  1684.8587 C.3      518 DG      0.0000
   1026 O4'        4.9022    -4.4916  1685.1294 O.3      518 DG      0.0000
   1027 C3'        5.5979    -5.9251  1683.3710 C.3      518 DG      0.0000
   1028 O3'        4.9874    -7.1860  1683.1625 O.3      518 DG      0.0000
   1029 C2'        4.8529    -4.7344  1682.7943 C.3      518 DG      0.0000
   1030 C1'        4.0684    -4.2253  1683.9804 C.3      518 DG      0.0000
   1031 N9         3.8055    -2.7890  1683.8568 N.ar     518 DG      0.0000
   1032 C8         4.7046    -1.7728  1683.6980 C.ar     518 DG      0.0000
   1033 N7         4.1520    -0.5868  1683.6199 N.ar     518 DG      0.0000
   1034 C5         2.7901    -0.8386  1683.7574 C.ar     518 DG      0.0000
   1035 C6         1.6634     0.0254  1683.7669 C.2      518 DG      0.0000
   1036 O6         1.6669     1.2482  1683.6678 O.2      518 DG      0.0000
   1037 N1         0.4625    -0.6083  1683.9159 N.am     518 DG      0.0000
   1038 C2         0.3683    -1.9725  1684.0488 C.2      518 DG      0.0000
   1039 N2        -0.8650    -2.4606  1684.1844 N.pl3    518 DG      0.0000
   1040 N3         1.3854    -2.8401  1684.0530 N.2      518 DG      0.0000
   1041 C4         2.5687    -2.1977  1683.9023 C.ar     518 DG      0.0000
   1042 H5'        7.8658    -5.9717  1684.8277 H        518 DG      0.0000
   1043 H5''       7.2375    -5.3719  1686.3908 H        518 DG      0.0000
   1044 H4'        5.3699    -6.4536  1685.4317 H        518 DG      0.0000
   1045 H3'        6.5954    -5.9505  1682.9324 H        518 DG      0.0000
   1046 H2'        5.5462    -3.9773  1682.4279 H        518 DG      0.0000
   1047 H2''       4.1794    -5.0533  1681.9987 H        518 DG      0.0000
   1048 H1'        3.1285    -4.7703  1684.0674 H        518 DG      0.0000
   1049 H8         5.7714    -1.9318  1683.6419 H        518 DG      0.0000
   1050 H1        -0.3832    -0.0563  1683.9287 H        518 DG      0.0000
   1051 H21       -1.6583    -1.8355  1684.1854 H        518 DG      0.0000
   1052 H22       -1.0060    -3.4555  1684.2862 H        518 DG      0.0000
   1053 P          3.7751    -7.7125  1682.2962 P.3      517 DA      0.0000
   1054 OP1        2.9889    -8.7728  1683.0775 O.co2    517 DA      0.0000
   1055 OP2        4.3857    -8.3040  1681.1035 O.co2    517 DA      0.0000
   1056 O5'        2.7592    -6.4510  1682.1214 O.3      517 DA      0.0000
   1057 C5'        1.8497    -6.3210  1683.2778 C.3      517 DA      0.0000
   1058 C4'        0.4507    -6.5220  1682.7500 C.3      517 DA      0.0000
   1059 O4'       -0.2196    -5.3074  1682.5277 O.3      517 DA      0.0000
   1060 C3'        0.4193    -7.2551  1681.4095 C.3      517 DA      0.0000
   1061 O3'       -0.6213    -8.1999  1681.3343 O.3      517 DA      0.0000
   1062 C2'        0.4064    -6.1099  1680.4129 C.3      517 DA      0.0000
   1063 C1'       -0.1630    -4.9219  1681.1368 C.3      517 DA      0.0000
   1064 N9         0.6432    -3.7100  1680.9113 N.ar     517 DA      0.0000
   1065 C8         2.0041    -3.5973  1680.7249 C.ar     517 DA      0.0000
   1066 N7         2.4238    -2.3685  1680.5290 N.ar     517 DA      0.0000
   1067 C5         1.2587    -1.6169  1680.6159 C.ar     517 DA      0.0000
   1068 C6         1.0334    -0.2245  1680.5102 C.ar     517 DA      0.0000
   1069 N6         1.9906     0.6614  1680.2978 N.pl3    517 DA      0.0000
   1070 N1        -0.2597     0.1839  1680.6340 N.ar     517 DA      0.0000
   1071 C2        -1.2687    -0.7088  1680.8585 C.ar     517 DA      0.0000
   1072 N3        -1.1242    -2.0273  1680.9744 N.ar     517 DA      0.0000
   1073 C4         0.1652    -2.4210  1680.8382 C.ar     517 DA      0.0000
   1074 H5'        2.0820    -7.0790  1684.0259 H        517 DA      0.0000
   1075 H5''       1.9431    -5.3267  1683.7145 H        517 DA      0.0000
   1076 H4'       -0.1153    -7.1036  1683.4777 H        517 DA      0.0000
   1077 H3'        1.3639    -7.7872  1681.2964 H        517 DA      0.0000
   1078 H2'       -0.2177    -6.3634  1679.5561 H        517 DA      0.0000
   1079 H2''       1.4221    -5.8927  1680.0824 H        517 DA      0.0000
   1080 H1'       -1.1767    -4.7430  1680.7786 H        517 DA      0.0000
   1081 H8         2.6693    -4.4480  1680.7388 H        517 DA      0.0000
   1082 H2        -2.2688    -0.3114  1680.9497 H        517 DA      0.0000
   1083 H61        1.8980     1.6165  1680.6132 H        517 DA      0.0000
   1084 H62        2.8295     0.3785  1679.8115 H        517 DA      0.0000
   1085 P         -1.5877    -8.5995  1680.1497 P.3      516 DA      0.0000
   1086 OP1       -2.7400    -9.5077  1680.6696 O.co2    516 DA      0.0000
   1087 OP2       -0.7279    -9.3917  1679.2160 O.co2    516 DA      0.0000
   1088 O5'       -2.2866    -7.2802  1679.6470 O.3      516 DA      0.0000
   1089 C5'       -3.6149    -6.9497  1680.1029 C.3      516 DA      0.0000
   1090 C4'       -4.0173    -5.6710  1679.4009 C.3      516 DA      0.0000
   1091 O4'       -2.9872    -4.7319  1679.2802 O.3      516 DA      0.0000
   1092 C3'       -4.5679    -5.8960  1677.9934 C.3      516 DA      0.0000
   1093 O3'       -5.9629    -5.5396  1677.9620 O.3      516 DA      0.0000
   1094 C2'       -3.6000    -5.1252  1677.0939 C.3      516 DA      0.0000
   1095 C1'       -3.0877    -4.0401  1677.9916 C.3      516 DA      0.0000
   1096 N9        -1.7571    -3.5214  1677.6921 N.ar     516 DA      0.0000
   1097 C8        -0.5760    -4.2072  1677.4973 C.ar     516 DA      0.0000
   1098 N7         0.4621    -3.4277  1677.2919 N.ar     516 DA      0.0000
   1099 C5        -0.0553    -2.1492  1677.3664 C.ar     516 DA      0.0000
   1100 C6         0.5473    -0.8782  1677.2329 C.ar     516 DA      0.0000
   1101 N6         1.8414    -0.6942  1676.9897 N.pl3    516 DA      0.0000
   1102 N1        -0.3014     0.1892  1677.3818 N.ar     516 DA      0.0000
   1103 C2        -1.6153     0.0338  1677.6343 C.ar     516 DA      0.0000
   1104 N3        -2.2525    -1.1327  1677.7731 N.ar     516 DA      0.0000
   1105 C4        -1.4138    -2.1824  1677.6259 C.ar     516 DA      0.0000
   1106 H5'       -4.3084    -7.7509  1679.8477 H        516 DA      0.0000
   1107 H5''      -3.6087    -6.7942  1681.1817 H        516 DA      0.0000
   1108 H4'       -4.8099    -5.2110  1679.9911 H        516 DA      0.0000
   1109 H3'       -4.4812    -6.9568  1677.7584 H        516 DA      0.0000
   1110 H2'       -2.7873    -5.7672  1676.7540 H        516 DA      0.0000
   1111 H2''      -4.1294    -4.6974  1676.2425 H        516 DA      0.0000
   1112 H1'       -3.8087    -3.2249  1678.0527 H        516 DA      0.0000
   1113 H8        -0.5104    -5.2851  1677.5123 H        516 DA      0.0000
   1114 H2        -2.2066     0.9321  1677.7333 H        516 DA      0.0000
   1115 H61        2.2132     0.1977  1677.2837 H        516 DA      0.0000
   1116 H62        2.4126    -1.3969  1676.5424 H        516 DA      0.0000
   1117 P         -6.7721    -5.6775  1676.5770 P.3      515 DT      0.0000
   1118 OP1       -8.2672    -5.6107  1676.6351 O.co2    515 DT      0.0000
   1119 OP2       -6.2075    -6.9633  1676.0644 O.co2    515 DT      0.0000
   1120 O5'       -6.2680    -4.2531  1675.8739 O.3      515 DT      0.0000
   1121 C5'       -6.2677    -3.2014  1676.8862 C.3      515 DT      0.0000
   1122 C4'       -6.3565    -1.8742  1676.2032 C.3      515 DT      0.0000
   1123 O4'       -5.1179    -1.2552  1676.0228 O.3      515 DT      0.0000
   1124 C3'       -7.0333    -1.9187  1674.8420 C.3      515 DT      0.0000
   1125 O3'       -7.8379    -0.7635  1674.5747 O.3      515 DT      0.0000
   1126 C2'       -5.7955    -2.0725  1673.9486 C.3      515 DT      0.0000
   1127 C1'       -4.8324    -1.0956  1674.5887 C.3      515 DT      0.0000
   1128 N1        -3.4317    -1.4968  1674.3587 N.am     515 DT      0.0000
   1129 C2        -2.4903    -0.4900  1674.2371 C.2      515 DT      0.0000
   1130 O2        -2.8186     0.6969  1674.2738 O.2      515 DT      0.0000
   1131 N3        -1.1811    -0.8519  1674.0697 N.am     515 DT      0.0000
   1132 C4        -0.7958    -2.1553  1674.0211 C.2      515 DT      0.0000
   1133 O4         0.4340    -2.3983  1673.8356 O.2      515 DT      0.0000
   1134 C5        -1.7769    -3.1752  1674.1695 C.2      515 DT      0.0000
   1135 C7        -1.3860    -4.6330  1674.1174 C.3      515 DT      0.0000
   1136 C6        -3.0502    -2.8054  1674.3425 C.2      515 DT      0.0000
   1137 H5'       -7.1240    -3.3305  1677.5483 H        515 DT      0.0000
   1138 H5''      -5.3463    -3.2529  1677.4662 H        515 DT      0.0000
   1139 H4'       -6.9541    -1.2221  1676.8403 H        515 DT      0.0000
   1140 H3'       -7.6483    -2.8157  1674.7700 H        515 DT      0.0000
   1141 H2'       -5.4075    -3.0907  1673.9792 H        515 DT      0.0000
   1142 H2''      -6.0205    -1.7765  1672.9240 H        515 DT      0.0000
   1143 H1'       -5.0166    -0.0745  1674.2547 H        515 DT      0.0000
   1144 H3        -0.4806    -0.1299  1673.9795 H        515 DT      0.0000
   1145 H6        -3.8021    -3.5696  1674.4739 H        515 DT      0.0000
   1146 H71       -1.5548    -5.0192  1673.1122 H        515 DT      0.0000
   1147 H72       -1.9897    -5.1964  1674.8290 H        515 DT      0.0000
   1148 H73       -0.3317    -4.7358  1674.3740 H        515 DT      0.0000
   1149 P         -8.5089    -0.6984  1673.0848 P.3      514 DT      0.0000
   1150 OP1      -10.0279    -0.8046  1673.2328 O.co2    514 DT      0.0000
   1151 OP2       -7.9788    -1.9336  1672.4150 O.co2    514 DT      0.0000
   1152 O5'       -8.0752     0.6393  1672.4327 O.3      514 DT      0.0000
   1153 C5'       -7.7971     1.8209  1673.1841 C.3      514 DT      0.0000
   1154 C4'       -6.7816     2.6237  1672.4361 C.3      514 DT      0.0000
   1155 O4'       -5.4638     2.1484  1672.3791 O.3      514 DT      0.0000
   1156 C3'       -7.1009     2.9883  1670.9701 C.3      514 DT      0.0000
   1157 O3'       -6.5068     4.2858  1670.8663 O.3      514 DT      0.0000
   1158 C2'       -6.3002     1.9252  1670.2063 C.3      514 DT      0.0000
   1159 C1'       -5.0073     2.0728  1670.9821 C.3      514 DT      0.0000
   1160 N1        -4.0664     0.9540  1670.8759 N.am     514 DT      0.0000
   1161 C2        -2.7104     1.3076  1670.8753 C.2      514 DT      0.0000
   1162 O2        -2.3609     2.4890  1670.9183 O.2      514 DT      0.0000
   1163 N3        -1.8030     0.2888  1670.8218 N.am     514 DT      0.0000
   1164 C4        -2.1691    -1.0230  1670.7621 C.2      514 DT      0.0000
   1165 O4        -1.2510    -1.8951  1670.6997 O.2      514 DT      0.0000
   1166 C5        -3.5516    -1.3536  1670.7703 C.2      514 DT      0.0000
   1167 C7        -3.9725    -2.8071  1670.7089 C.3      514 DT      0.0000
   1168 C6        -4.4357    -0.3539  1670.8368 C.2      514 DT      0.0000
   1169 H5'       -8.7102     2.4034  1673.3063 H        514 DT      0.0000
   1170 H5''      -7.4016     1.5488  1674.1627 H        514 DT      0.0000
   1171 H4'       -6.7218     3.5758  1672.9634 H        514 DT      0.0000
   1172 H3'       -8.1665     2.9780  1670.7414 H        514 DT      0.0000
   1173 H2'       -6.1830     2.1705  1669.1508 H        514 DT      0.0000
   1174 H2''      -6.7313     0.9328  1670.3379 H        514 DT      0.0000
   1175 H1'       -4.5112     3.0024  1670.7030 H        514 DT      0.0000
   1176 H3        -0.8191     0.5167  1670.8267 H        514 DT      0.0000
   1177 H6        -5.4881    -0.5950  1670.8605 H        514 DT      0.0000
   1178 H71       -3.0869    -3.4407  1670.6601 H        514 DT      0.0000
   1179 H72       -4.5852    -2.9705  1669.8223 H        514 DT      0.0000
   1180 H73       -4.5489    -3.0564  1671.5998 H        514 DT      0.0000
   1181 P         -6.7088     5.3133  1669.7201 P.3      513 DC      0.0000
   1182 OP1       -7.0277     6.6799  1670.3292 O.co2    513 DC      0.0000
   1183 OP2       -7.8873     4.8241  1668.9383 O.co2    513 DC      0.0000
   1184 O5'       -5.2585     5.2481  1668.9807 O.3      513 DC      0.0000
   1185 C5'       -4.1660     5.9029  1669.7052 C.3      513 DC      0.0000
   1186 C4'       -3.2514     6.4772  1668.6547 C.3      513 DC      0.0000
   1187 O4'       -2.1361     5.6524  1668.4094 O.3      513 DC      0.0000
   1188 C3'       -3.8979     6.7222  1667.2902 C.3      513 DC      0.0000
   1189 O3'       -3.3836     7.8515  1666.5810 O.3      513 DC      0.0000
   1190 C2'       -3.6340     5.3748  1666.6041 C.3      513 DC      0.0000
   1191 C1'       -2.2604     4.9907  1667.1507 C.3      513 DC      0.0000
   1192 N1        -2.2125     3.5144  1667.2685 N.am     513 DC      0.0000
   1193 C2        -0.9512     2.9207  1667.2858 C.2      513 DC      0.0000
   1194 O2         0.0794     3.6044  1667.2171 O.2      513 DC      0.0000
   1195 N3        -0.9023     1.5567  1667.3890 N.2      513 DC      0.0000
   1196 C4        -2.0265     0.7969  1667.4597 C.2      513 DC      0.0000
   1197 N4        -1.9269    -0.5303  1667.5617 N.pl3    513 DC      0.0000
   1198 C5        -3.3014     1.4281  1667.4346 C.2      513 DC      0.0000
   1199 C6        -3.3485     2.7680  1667.3410 C.2      513 DC      0.0000
   1200 H5'       -4.5569     6.6971  1670.3412 H        513 DC      0.0000
   1201 H5''      -3.6280     5.1721  1670.3091 H        513 DC      0.0000
   1202 H4'       -2.8819     7.4341  1669.0234 H        513 DC      0.0000
   1203 H3'       -4.9723     6.8472  1667.4244 H        513 DC      0.0000
   1204 H2'       -3.6106     5.4827  1665.5198 H        513 DC      0.0000
   1205 H2''      -4.3833     4.6406  1666.9001 H        513 DC      0.0000
   1206 H1'       -1.4806     5.3348  1666.4713 H        513 DC      0.0000
   1207 H5        -4.2088     0.8449  1667.4894 H        513 DC      0.0000
   1208 H6        -4.3082     3.2631  1667.3229 H        513 DC      0.0000
   1209 H41       -1.0171    -0.9684  1667.5824 H        513 DC      0.0000
   1210 H42       -2.7615    -1.0965  1667.6181 H        513 DC      0.0000
   1211 P         -3.1725     7.9521  1664.9490 P.3      512 DA      0.0000
   1212 OP1       -3.1714     9.4145  1664.5595 O.co2    512 DA      0.0000
   1213 OP2       -4.2923     7.1547  1664.3789 O.co2    512 DA      0.0000
   1214 O5'       -1.6867     7.3922  1664.7834 O.3      512 DA      0.0000
   1215 C5'       -0.5701     8.2455  1665.2489 C.3      512 DA      0.0000
   1216 C4'        0.5735     7.7652  1664.3716 C.3      512 DA      0.0000
   1217 O4'        0.8411     6.3827  1664.6389 O.3      512 DA      0.0000
   1218 C3'        0.2523     7.8143  1662.8672 C.3      512 DA      0.0000
   1219 O3'        1.4282     7.7280  1662.0781 O.3      512 DA      0.0000
   1220 C2'       -0.4622     6.4633  1662.6797 C.3      512 DA      0.0000
   1221 C1'        0.6158     5.6381  1663.4344 C.3      512 DA      0.0000
   1222 N9         0.0246     4.3118  1663.5798 N.ar     512 DA      0.0000
   1223 C8        -1.3186     4.0177  1663.6526 C.ar     512 DA      0.0000
   1224 N7        -1.5646     2.7367  1663.7673 N.ar     512 DA      0.0000
   1225 C5        -0.2848     2.1536  1663.7609 C.ar     512 DA      0.0000
   1226 C6         0.1204     0.7943  1663.8609 C.ar     512 DA      0.0000
   1227 N6        -0.7312    -0.2280  1663.9837 N.pl3    512 DA      0.0000
   1228 N1         1.4691     0.6049  1663.8257 N.ar     512 DA      0.0000
   1229 C2         2.3338     1.6421  1663.7068 C.ar     512 DA      0.0000
   1230 N3         2.0233     2.9384  1663.6153 N.ar     512 DA      0.0000
   1231 C4         0.6904     3.1128  1663.6429 C.ar     512 DA      0.0000
   1232 H5'       -0.7815     9.3017  1665.0821 H        512 DA      0.0000
   1233 H5''      -0.3540     8.0573  1666.3005 H        512 DA      0.0000
   1234 H4'        1.4656     8.3574  1664.5755 H        512 DA      0.0000
   1235 H3'       -0.3749     8.6640  1662.5975 H        512 DA      0.0000
   1236 H2'       -1.4394     6.4283  1663.1613 H        512 DA      0.0000
   1237 H2''      -0.5215     6.1819  1661.6283 H        512 DA      0.0000
   1238 H1'        1.5316     5.5826  1662.8460 H        512 DA      0.0000
   1239 H8        -2.0930     4.7698  1663.6186 H        512 DA      0.0000
   1240 H2         3.3847     1.3944  1663.6836 H        512 DA      0.0000
   1241 H61       -1.7261    -0.0562  1664.0084 H        512 DA      0.0000
   1242 H62       -0.3799    -1.1725  1664.0518 H        512 DA      0.0000
   1243 P          1.7202     8.7932  1660.9372 P.3      511 DC      0.0000
   1244 OP1        2.3508     9.9347  1661.7175 O.co2    511 DC      0.0000
   1245 OP2        0.5089     9.1920  1660.2116 O.co2    511 DC      0.0000
   1246 O5'        2.7196     7.9252  1659.9613 O.3      511 DC      0.0000
   1247 C5'        3.8805     7.2996  1660.6304 C.3      511 DC      0.0000
   1248 C4'        4.1402     5.9634  1659.9863 C.3      511 DC      0.0000
   1249 O4'        3.4736     4.8804  1660.6235 O.3      511 DC      0.0000
   1250 C3'        3.7156     5.9185  1658.5085 C.3      511 DC      0.0000
   1251 O3'        4.5352     5.0864  1657.6972 O.3      511 DC      0.0000
   1252 C2'        2.3125     5.2480  1658.6742 C.3      511 DC      0.0000
   1253 C1'        2.8860     4.0888  1659.5697 C.3      511 DC      0.0000
   1254 N1         1.8059     3.1674  1659.8076 N.am     511 DC      0.0000
   1255 C2         2.1153     1.8547  1660.1248 C.2      511 DC      0.0000
   1256 O2         3.2185     1.3151  1660.2653 O.2      511 DC      0.0000
   1257 N3         1.0815     0.9819  1660.3230 N.2      511 DC      0.0000
   1258 C4        -0.2253     1.3684  1660.2070 C.2      511 DC      0.0000
   1259 N4        -1.2068     0.4787  1660.4231 N.pl3    511 DC      0.0000
   1260 C5        -0.5272     2.7186  1659.8774 C.2      511 DC      0.0000
   1261 C6         0.5010     3.5533  1659.6857 C.2      511 DC      0.0000
   1262 H5'        4.7570     7.9379  1660.5189 H        511 DC      0.0000
   1263 H5''       3.6616     7.1596  1661.6890 H        511 DC      0.0000
   1264 H4'        5.2122     5.7713  1660.0331 H        511 DC      0.0000
   1265 H3'        3.6297     6.9211  1658.0895 H        511 DC      0.0000
   1266 H2'        1.5890     5.8782  1659.1913 H        511 DC      0.0000
   1267 H2''       1.9244     4.8760  1657.7259 H        511 DC      0.0000
   1268 H1'        3.6786     3.5760  1659.0248 H        511 DC      0.0000
   1269 H5        -1.5485     3.0576  1659.7853 H        511 DC      0.0000
   1270 H6         0.2895     4.5791  1659.4224 H        511 DC      0.0000
   1271 H41       -0.9795    -0.4755  1660.6636 H        511 DC      0.0000
   1272 H42       -2.1727     0.7634  1660.3452 H        511 DC      0.0000
   1273 P         -1.4632    -9.9116  1694.2964 P.3      521 DG      0.0000
   1274 OP1       -2.3518   -11.0999  1694.2948 O.co2    521 DG      0.0000
   1275 OP2       -2.0184    -8.9445  1695.3521 O.co2    521 DG      0.0000
   1276 O5'        0.0950   -10.1796  1694.4748 O.3      521 DG      0.0000
   1277 C5'        1.1359   -10.1867  1693.4748 C.3      521 DG      0.0000
   1278 C4'        2.2746    -9.3218  1693.9736 C.3      521 DG      0.0000
   1279 O4'        2.1453    -7.9805  1693.5544 O.3      521 DG      0.0000
   1280 C3'        2.5359    -9.2854  1695.4658 C.3      521 DG      0.0000
   1281 O3'        3.9144    -9.6228  1695.7778 O.3      521 DG      0.0000
   1282 C2'        2.1516    -7.8800  1695.8877 C.3      521 DG      0.0000
   1283 C1'        2.3514    -7.0662  1694.6320 C.3      521 DG      0.0000
   1284 N9         1.4003    -5.9402  1694.6030 N.ar     521 DG      0.0000
   1285 C8         0.0445    -5.9377  1694.8318 C.ar     521 DG      0.0000
   1286 N7        -0.5126    -4.7511  1694.7421 N.ar     521 DG      0.0000
   1287 C5         0.5504    -3.9094  1694.4251 C.ar     521 DG      0.0000
   1288 C6         0.6129    -2.5121  1694.1992 C.2      521 DG      0.0000
   1289 O6        -0.3076    -1.6946  1694.2205 O.2      521 DG      0.0000
   1290 N1         1.8590    -2.0229  1693.9177 N.am     521 DG      0.0000
   1291 C2         2.9141    -2.7708  1693.8570 C.2      521 DG      0.0000
   1292 N2         3.9399    -2.0716  1693.5603 N.pl3    521 DG      0.0000
   1293 N3         2.9546    -4.1530  1694.0658 N.2      521 DG      0.0000
   1294 C4         1.7297    -4.6252  1694.3383 C.ar     521 DG      0.0000
   1295 H5'        1.4885   -11.2058  1693.3161 H        521 DG      0.0000
   1296 H5''       0.7495    -9.7818  1692.5394 H        521 DG      0.0000
   1297 H4'        3.1826    -9.7060  1693.5089 H        521 DG      0.0000
   1298 H3'        1.8752    -9.9979  1695.9597 H        521 DG      0.0000
   1299 H2'        1.1126    -7.8423  1696.2146 H        521 DG      0.0000
   1300 H2''       2.8124    -7.5264  1696.6792 H        521 DG      0.0000
   1301 H1'        3.3722    -6.6853  1694.6001 H        521 DG      0.0000
   1302 H8        -0.5135    -6.8326  1695.0649 H        521 DG      0.0000
   1303 H1         1.9606    -1.0323  1693.7493 H        521 DG      0.0000
   1304 H21        3.8481    -1.0762  1693.4159 H        521 DG      0.0000
   1305 H22        4.8434    -2.5138  1693.4698 H        521 DG      0.0000
   1306 P          4.5462    -9.3932  1697.2063 P.3      522 DT      0.0000
   1307 OP1        5.4541   -10.4814  1697.7180 O.co2    522 DT      0.0000
   1308 OP2        3.3121    -9.4492  1698.1250 O.co2    522 DT      0.0000
   1309 O5'        5.1365    -7.9602  1697.2349 O.3      522 DT      0.0000
   1310 C5'        6.5567    -7.6830  1697.0909 C.3      522 DT      0.0000
   1311 C4'        6.6586    -6.1731  1697.1484 C.3      522 DT      0.0000
   1312 O4'        5.4259    -5.5448  1696.8733 O.3      522 DT      0.0000
   1313 C3'        7.1049    -5.5806  1698.4611 C.3      522 DT      0.0000
   1314 O3'        8.3775    -4.9443  1698.2729 O.3      522 DT      0.0000
   1315 C2'        6.0251    -4.5725  1698.8534 C.3      522 DT      0.0000
   1316 C1'        5.4573    -4.2297  1697.5006 C.3      522 DT      0.0000
   1317 N1         4.0755    -3.7588  1697.5973 N.am     522 DT      0.0000
   1318 C2         3.8492    -2.4237  1697.3993 C.2      522 DT      0.0000
   1319 O2         4.7558    -1.6290  1697.1611 O.2      522 DT      0.0000
   1320 N3         2.5526    -1.9923  1697.4804 N.am     522 DT      0.0000
   1321 C4         1.5164    -2.8227  1697.7363 C.2      522 DT      0.0000
   1322 O4         0.3811    -2.2807  1697.7816 O.2      522 DT      0.0000
   1323 C5         1.7722    -4.2173  1697.9360 C.2      522 DT      0.0000
   1324 C7         0.6548    -5.1690  1698.2159 C.3      522 DT      0.0000
   1325 C6         3.0434    -4.6304  1697.8545 C.2      522 DT      0.0000
   1326 H5'        7.1219    -8.1380  1697.9043 H        522 DT      0.0000
   1327 H5''       6.9173    -8.0493  1696.1297 H        522 DT      0.0000
   1328 H4'        7.3692    -5.8591  1696.3839 H        522 DT      0.0000
   1329 H3'        7.1833    -6.3609  1699.2182 H        522 DT      0.0000
   1330 H2'        5.2732    -5.0217  1699.5022 H        522 DT      0.0000
   1331 H2''       6.4671    -3.6935  1699.3226 H        522 DT      0.0000
   1332 H1'        6.0913    -3.5306  1696.9553 H        522 DT      0.0000
   1333 H3         2.3613    -1.0102  1697.3429 H        522 DT      0.0000
   1334 H6         3.2645    -5.6782  1697.9949 H        522 DT      0.0000
   1335 H71        0.4166    -5.7270  1697.3104 H        522 DT      0.0000
   1336 H72       -0.2239    -4.6118  1698.5407 H        522 DT      0.0000
   1337 H73        0.9561    -5.8623  1699.0012 H        522 DT      0.0000
   1338 P          9.3676    -5.1101  1699.5529 P.3      523 DG      0.0000
   1339 OP1       10.7049    -5.2549  1698.8378 O.co2    523 DG      0.0000
   1340 OP2        8.9697    -6.2858  1700.3064 O.co2    523 DG      0.0000
   1341 O5'        9.0971    -3.6203  1700.1624 O.3      523 DG      0.0000
   1342 C5'        9.1660    -2.6257  1699.0718 C.3      523 DG      0.0000
   1343 C4'        8.5930    -1.3403  1699.5918 C.3      523 DG      0.0000
   1344 O4'        7.2151    -1.1502  1699.4113 O.3      523 DG      0.0000
   1345 C3'        8.8764    -1.1331  1701.0999 C.3      523 DG      0.0000
   1346 O3'        9.5202     0.1544  1701.2587 O.3      523 DG      0.0000
   1347 C2'        7.5198    -1.2925  1701.7525 C.3      523 DG      0.0000
   1348 C1'        6.5899    -0.7551  1700.6709 C.3      523 DG      0.0000
   1349 N9         5.2239    -1.2628  1700.8404 N.ar     523 DG      0.0000
   1350 C8         4.8154    -2.5239  1701.1766 C.ar     523 DG      0.0000
   1351 N7         3.5118    -2.6733  1701.2624 N.ar     523 DG      0.0000
   1352 C5         3.0307    -1.4083  1700.9324 C.ar     523 DG      0.0000
   1353 C6         1.6983    -0.9140  1700.8380 C.2      523 DG      0.0000
   1354 O6         0.6381    -1.5277  1701.0303 O.2      523 DG      0.0000
   1355 N1         1.6082     0.4177  1700.5030 N.am     523 DG      0.0000
   1356 C2         2.7134     1.1807  1700.2792 C.2      523 DG      0.0000
   1357 N2         2.4358     2.4542  1699.9704 N.pl3    523 DG      0.0000
   1358 N3         3.9760     0.7653  1700.3502 N.2      523 DG      0.0000
   1359 C4         4.0663    -0.5353  1700.6768 C.ar     523 DG      0.0000
   1360 H5'       10.2029    -2.4753  1698.7713 H        523 DG      0.0000
   1361 H5''       8.5815    -2.9719  1698.2194 H        523 DG      0.0000
   1362 H4'        9.0961    -0.5319  1699.0613 H        523 DG      0.0000
   1363 H3'        9.5439    -1.9184  1701.4546 H        523 DG      0.0000
   1364 H2'        7.3070    -2.3379  1701.9754 H        523 DG      0.0000
   1365 H2''       7.4527    -0.6848  1702.6549 H        523 DG      0.0000
   1366 H1'        6.5718     0.3331  1700.7298 H        523 DG      0.0000
   1367 H8         5.5081    -3.3326  1701.3573 H        523 DG      0.0000
   1368 H1         0.6952     0.8416  1700.4206 H        523 DG      0.0000
   1369 H21        1.4758     2.7639  1699.9202 H        523 DG      0.0000
   1370 H22        3.1866     3.1048  1699.7877 H        523 DG      0.0000
   1371 P         10.0516     0.6377  1702.6472 P.3      524 DA      0.0000
   1372 OP1       11.4527     0.2585  1703.0025 O.co2    524 DA      0.0000
   1373 OP2        9.0861    -0.2221  1703.5429 O.co2    524 DA      0.0000
   1374 O5'        9.5757     2.1298  1702.8963 O.3      524 DA      0.0000
   1375 C5'        9.2122     3.0618  1701.8672 C.3      524 DA      0.0000
   1376 C4'        7.9150     3.6968  1702.3416 C.3      524 DA      0.0000
   1377 O4'        6.8529     2.7714  1702.2512 O.3      524 DA      0.0000
   1378 C3'        7.9106     4.2398  1703.7706 C.3      524 DA      0.0000
   1379 O3'        7.3464     5.5665  1703.8229 O.3      524 DA      0.0000
   1380 C2'        7.0594     3.1975  1704.5060 C.3      524 DA      0.0000
   1381 C1'        6.0197     2.9299  1703.4284 C.3      524 DA      0.0000
   1382 N9         5.2307     1.7151  1703.6569 N.ar     524 DA      0.0000
   1383 C8         5.6400     0.4298  1703.8726 C.ar     524 DA      0.0000
   1384 N7         4.6535    -0.4229  1704.0376 N.ar     524 DA      0.0000
   1385 C5         3.5142     0.3554  1703.8974 C.ar     524 DA      0.0000
   1386 C6         2.1426     0.0235  1703.9454 C.ar     524 DA      0.0000
   1387 N6         1.6705    -1.2058  1704.1651 N.pl3    524 DA      0.0000
   1388 N1         1.2834     1.0687  1703.7555 N.ar     524 DA      0.0000
   1389 C2         1.7409     2.3234  1703.5378 C.ar     524 DA      0.0000
   1390 N3         3.0149     2.7093  1703.4795 N.ar     524 DA      0.0000
   1391 C4         3.8462     1.6680  1703.6664 C.ar     524 DA      0.0000
   1392 H5'        9.0598     2.5443  1700.9200 H        524 DA      0.0000
   1393 H5''       9.9853     3.8226  1701.7594 H        524 DA      0.0000
   1394 H4'        7.6887     4.5264  1701.6718 H        524 DA      0.0000
   1395 H3'        8.9240     4.2472  1704.1720 H        524 DA      0.0000
   1396 H2'        7.6319     2.3030  1704.7515 H        524 DA      0.0000
   1397 H2''       6.5995     3.6251  1705.3969 H        524 DA      0.0000
   1398 H1'        5.3626     3.7920  1703.3139 H        524 DA      0.0000
   1399 H8         6.6801     0.1406  1703.9047 H        524 DA      0.0000
   1400 H2         0.9956     3.0923  1703.3964 H        524 DA      0.0000
   1401 H61        2.2052    -2.0572  1704.0677 H        524 DA      0.0000
   1402 H62        0.6906    -1.3807  1703.9936 H        524 DA      0.0000
   1403 P          7.7844     6.6635  1704.9643 P.3      525 DA      0.0000
   1404 OP1        8.4024     7.8671  1704.2973 O.co2    525 DA      0.0000
   1405 OP2        8.7029     5.8586  1705.7952 O.co2    525 DA      0.0000
   1406 O5'        6.3748     7.1892  1705.4952 O.3      525 DA      0.0000
   1407 C5'        5.4197     7.8551  1704.6708 C.3      525 DA      0.0000
   1408 C4'        4.0328     7.5235  1705.1931 C.3      525 DA      0.0000
   1409 O4'        3.8182     6.1407  1705.2213 O.3      525 DA      0.0000
   1410 C3'        3.6520     8.0643  1706.5604 C.3      525 DA      0.0000
   1411 O3'        2.5649     8.9860  1706.4826 O.3      525 DA      0.0000
   1412 C2'        3.3792     6.8029  1707.3892 C.3      525 DA      0.0000
   1413 C1'        3.0278     5.7650  1706.3954 C.3      525 DA      0.0000
   1414 N9         3.3216     4.3455  1706.6634 N.ar     525 DA      0.0000
   1415 C8         4.5287     3.6997  1706.7786 C.ar     525 DA      0.0000
   1416 N7         4.4295     2.4024  1706.9479 N.ar     525 DA      0.0000
   1417 C5         3.0588     2.1672  1706.9109 C.ar     525 DA      0.0000
   1418 C6         2.2994     0.9686  1707.0314 C.ar     525 DA      0.0000
   1419 N6         2.8010    -0.2451  1707.2230 N.pl3    525 DA      0.0000
   1420 N1         0.9384     1.1167  1706.9332 N.ar     525 DA      0.0000
   1421 C2         0.3855     2.3499  1706.7441 C.ar     525 DA      0.0000
   1422 N3         1.0333     3.5043  1706.6363 N.ar     525 DA      0.0000
   1423 C4         2.3687     3.3431  1706.7281 C.ar     525 DA      0.0000
   1424 H5'        5.5181     7.5123  1703.6408 H        525 DA      0.0000
   1425 H5''       5.5819     8.9320  1704.7168 H        525 DA      0.0000
   1426 H4'        3.3201     7.9385  1704.4804 H        525 DA      0.0000
   1427 H3'        4.5147     8.5787  1706.9837 H        525 DA      0.0000
   1428 H2'        4.2679     6.5124  1707.9495 H        525 DA      0.0000
   1429 H2''       2.5439     6.9720  1708.0688 H        525 DA      0.0000
   1430 H1'        1.9703     5.8616  1706.1493 H        525 DA      0.0000
   1431 H8         5.4768     4.2149  1706.7338 H        525 DA      0.0000
   1432 H2        -0.6915     2.3915  1706.6749 H        525 DA      0.0000
   1433 H61        3.7454    -0.3926  1707.5492 H        525 DA      0.0000
   1434 H62        2.2183    -1.0487  1707.0362 H        525 DA      0.0000
   1435 P          2.3565    10.2847  1707.4388 P.3      526 DT      0.0000
   1436 OP1        1.8890    11.4971  1706.6415 O.co2    526 DT      0.0000
   1437 OP2        3.5281    10.5090  1708.2594 O.co2    526 DT      0.0000
   1438 O5'        0.9863     9.8780  1708.2526 O.3      526 DT      0.0000
   1439 C5'        0.0357     9.2239  1707.3074 C.3      526 DT      0.0000
   1440 C4'       -0.5429     8.0760  1708.0952 C.3      526 DT      0.0000
   1441 O4'        0.3590     7.0093  1708.2871 O.3      526 DT      0.0000
   1442 C3'       -0.9725     8.5002  1709.5118 C.3      526 DT      0.0000
   1443 O3'       -2.3652     8.7537  1709.5134 O.3      526 DT      0.0000
   1444 C2'       -0.5289     7.3475  1710.4090 C.3      526 DT      0.0000
   1445 C1'       -0.2298     6.2703  1709.4444 C.3      526 DT      0.0000
   1446 N1         0.7085     5.2125  1709.7841 N.am     526 DT      0.0000
   1447 C2         0.1868     3.9301  1709.9221 C.2      526 DT      0.0000
   1448 O2        -1.0212     3.7516  1709.8341 O.2      526 DT      0.0000
   1449 N3         1.0501     2.9074  1710.1761 N.am     526 DT      0.0000
   1450 C4         2.3978     3.0924  1710.2962 C.2      526 DT      0.0000
   1451 O4         3.1365     2.0883  1710.5514 O.2      526 DT      0.0000
   1452 C5         2.9148     4.4187  1710.1246 C.2      526 DT      0.0000
   1453 C7         4.3941     4.6733  1710.2122 C.3      526 DT      0.0000
   1454 C6         2.0592     5.4233  1709.8689 C.2      526 DT      0.0000
   1455 H5'       -0.7481     9.9188  1707.0058 H        526 DT      0.0000
   1456 H5''       0.5684     8.8516  1706.4324 H        526 DT      0.0000
   1457 H4'       -1.4181     7.6989  1707.5660 H        526 DT      0.0000
   1458 H3'       -0.4386     9.4070  1709.7961 H        526 DT      0.0000
   1459 H2'        0.3581     7.6168  1710.9824 H        526 DT      0.0000
   1460 H2''      -1.3382     7.0492  1711.0754 H        526 DT      0.0000
   1461 H1'       -1.1682     5.8156  1709.1271 H        526 DT      0.0000
   1462 H3         0.6783     1.9741  1710.2798 H        526 DT      0.0000
   1463 H6         2.4464     6.4215  1709.7267 H        526 DT      0.0000
   1464 H71        4.9123     3.7384  1710.4252 H        526 DT      0.0000
   1465 H72        4.7496     5.0777  1709.2644 H        526 DT      0.0000
   1466 H73        4.5930     5.3889  1711.0100 H        526 DT      0.0000
   1467 P         -3.2396     9.4022  1710.6201 P.3      527 DT      0.0000
   1468 OP1       -4.5377     9.9893  1710.0080 O.co2    527 DT      0.0000
   1469 OP2       -2.4016    10.4548  1711.2500 O.co2    527 DT      0.0000
   1470 O5'       -3.7530     8.1654  1711.5024 O.3      527 DT      0.0000
   1471 C5'       -4.7117     7.3377  1710.7906 C.3      527 DT      0.0000
   1472 C4'       -4.7940     6.0133  1711.4668 C.3      527 DT      0.0000
   1473 O4'       -3.5758     5.2798  1711.4434 O.3      527 DT      0.0000
   1474 C3'       -5.2441     6.0769  1712.9334 C.3      527 DT      0.0000
   1475 O3'       -6.1942     5.0621  1713.1974 O.3      527 DT      0.0000
   1476 C2'       -3.9209     5.7596  1713.6697 C.3      527 DT      0.0000
   1477 C1'       -3.4553     4.6360  1712.7662 C.3      527 DT      0.0000
   1478 N1        -2.0858     4.2595  1713.0639 N.am     527 DT      0.0000
   1479 C2        -1.7677     2.9122  1713.1187 C.2      527 DT      0.0000
   1480 O2        -2.6576     2.0815  1712.9302 O.2      527 DT      0.0000
   1481 N3        -0.4734     2.5640  1713.3846 N.am     527 DT      0.0000
   1482 C4         0.5000     3.4926  1713.5916 C.2      527 DT      0.0000
   1483 O4         1.6793     3.0955  1713.8149 O.2      527 DT      0.0000
   1484 C5         0.1622     4.8759  1713.5265 C.2      527 DT      0.0000
   1485 C7         1.1798     5.9590  1713.7365 C.3      527 DT      0.0000
   1486 C6        -1.1137     5.2001  1713.2654 C.2      527 DT      0.0000
   1487 H5'       -5.6905     7.8172  1710.8030 H        527 DT      0.0000
   1488 H5''      -4.3839     7.2023  1709.7599 H        527 DT      0.0000
   1489 H4'       -5.5353     5.4228  1710.9283 H        527 DT      0.0000
   1490 H3'       -5.6250     7.0639  1713.1958 H        527 DT      0.0000
   1491 H2'       -3.2327     6.6048  1713.6685 H        527 DT      0.0000
   1492 H2''      -4.1071     5.4021  1714.6824 H        527 DT      0.0000
   1493 H1'       -4.1201     3.7756  1712.8418 H        527 DT      0.0000
   1494 H3        -0.2309     1.5845  1713.4290 H        527 DT      0.0000
   1495 H6        -1.3833     6.2445  1713.2123 H        527 DT      0.0000
   1496 H71        2.1531     5.5103  1713.9354 H        527 DT      0.0000
   1497 H72        1.2414     6.5777  1712.8412 H        527 DT      0.0000
   1498 H73        0.8840     6.5760  1714.5849 H        527 DT      0.0000
   1499 P         -7.6393     4.9910  1713.8054 P.3      528 DC      0.0000
   1500 OP1       -8.6752     4.6968  1712.7375 O.co2    528 DC      0.0000
   1501 OP2       -7.8158     6.2568  1714.5403 O.co2    528 DC      0.0000
   1502 O5'       -7.4206     3.6018  1714.6314 O.3      528 DC      0.0000
   1503 C5'       -6.9093     2.6697  1713.6091 C.3      528 DC      0.0000
   1504 C4'       -6.6101     1.3728  1714.3057 C.3      528 DC      0.0000
   1505 O4'       -5.2495     1.1974  1714.5526 O.3      528 DC      0.0000
   1506 C3'       -7.3855     1.1379  1715.5971 C.3      528 DC      0.0000
   1507 O3'       -8.1194    -0.0769  1715.5174 O.3      528 DC      0.0000
   1508 C2'       -6.2765     1.2467  1716.6459 C.3      528 DC      0.0000
   1509 C1'       -5.0544     0.7949  1715.9495 C.3      528 DC      0.0000
   1510 N1        -3.8033     1.4837  1716.2816 N.am     528 DC      0.0000
   1511 C2        -2.7065     0.6635  1716.5374 C.2      528 DC      0.0000
   1512 O2        -2.8112    -0.5668  1716.5419 O.2      528 DC      0.0000
   1513 N3        -1.5087     1.2762  1716.8112 N.2      528 DC      0.0000
   1514 C4        -1.3848     2.6345  1716.8013 C.2      528 DC      0.0000
   1515 N4        -0.1847     3.1323  1717.0781 N.pl3    528 DC      0.0000
   1516 C5        -2.5017     3.4529  1716.5233 C.2      528 DC      0.0000
   1517 C6        -3.6717     2.8360  1716.2585 C.2      528 DC      0.0000
   1518 H5'       -7.6612     2.5139  1712.8355 H        528 DC      0.0000
   1519 H5''      -5.9982     3.0704  1713.1649 H        528 DC      0.0000
   1520 H4'       -6.9047     0.5785  1713.6197 H        528 DC      0.0000
   1521 H3'       -8.0852     1.9612  1715.7404 H        528 DC      0.0000
   1522 H2'       -6.1673     2.2772  1716.9838 H        528 DC      0.0000
   1523 H2''      -6.4919     0.5934  1717.4914 H        528 DC      0.0000
   1524 H1'       -4.9371    -0.2857  1716.0304 H        528 DC      0.0000
   1525 H5        -2.4223     4.5300  1716.5227 H        528 DC      0.0000
   1526 H6        -4.5353     3.4388  1716.0195 H        528 DC      0.0000
   1527 H41        0.5861     2.5108  1717.2773 H        528 DC      0.0000
   1528 H42       -0.0431     4.1322  1717.0895 H        528 DC      0.0000
   1529 P         -9.3581    -0.5158  1716.4695 P.3      529 DA      0.0000
   1530 OP1      -10.2021    -1.4945  1715.6757 O.co2    529 DA      0.0000
   1531 OP2      -10.1163     0.7039  1716.8150 O.co2    529 DA      0.0000
   1532 O5'       -8.6311    -1.2210  1717.7665 O.3      529 DA      0.0000
   1533 C5'       -7.6748    -2.2847  1717.4713 C.3      529 DA      0.0000
   1534 C4'       -7.0214    -2.7623  1718.7265 C.3      529 DA      0.0000
   1535 O4'       -5.7136    -2.2349  1718.9687 O.3      529 DA      0.0000
   1536 C3'       -7.7574    -2.4163  1720.0318 C.3      529 DA      0.0000
   1537 O3'       -7.2943    -3.2927  1721.0617 O.3      529 DA      0.0000
   1538 C2'       -7.2252    -0.9853  1720.2464 C.3      529 DA      0.0000
   1539 C1'       -5.7414    -1.3217  1720.0631 C.3      529 DA      0.0000
   1540 N9        -4.9791    -0.0882  1719.9688 N.ar     529 DA      0.0000
   1541 C8        -5.3953     1.2092  1719.8529 C.ar     529 DA      0.0000
   1542 N7        -4.4260     2.1065  1719.8343 N.ar     529 DA      0.0000
   1543 C5        -3.2781     1.3341  1719.9419 C.ar     529 DA      0.0000
   1544 C6        -1.9037     1.6762  1719.9764 C.ar     529 DA      0.0000
   1545 N6        -1.4362     2.9086  1719.8911 N.pl3    529 DA      0.0000
   1546 N1        -1.0284     0.6365  1720.1090 N.ar     529 DA      0.0000
   1547 C2        -1.4695    -0.6575  1720.1892 C.ar     529 DA      0.0000
   1548 N3        -2.7389    -1.0565  1720.1593 N.ar     529 DA      0.0000
   1549 C4        -3.5937    -0.0116  1720.0363 C.ar     529 DA      0.0000
   1550 H5'       -8.1979    -3.1169  1717.0001 H        529 DA      0.0000
   1551 H5''      -6.9130    -1.9058  1716.7900 H        529 DA      0.0000
   1552 H4'       -6.9382    -3.8475  1718.6676 H        529 DA      0.0000
   1553 H3'       -8.8411    -2.4443  1719.9181 H        529 DA      0.0000
   1554 H2'       -7.5916    -0.2853  1719.4956 H        529 DA      0.0000
   1555 H2''      -7.4315    -0.6307  1721.2563 H        529 DA      0.0000
   1556 H1'       -5.4066    -1.8550  1720.9527 H        529 DA      0.0000
   1557 H8        -6.4383     1.4801  1719.7819 H        529 DA      0.0000
   1558 H2        -0.7169    -1.4261  1720.2856 H        529 DA      0.0000
   1559 H61       -0.5383     3.3345  1720.0712 H        529 DA      0.0000
   1560 H62       -2.1301     3.5716  1719.5764 H        529 DA      0.0000
   1561 P         -7.8556    -4.7845  1721.2022 P.3      530 DC      0.0000
   1562 OP1       -8.5007    -5.2892  1719.9571 O.co2    530 DC      0.0000
   1563 OP2       -8.8205    -4.6541  1722.3451 O.co2    530 DC      0.0000
   1564 O5'       -6.5506    -5.6397  1721.4853 O.3      530 DC      0.0000
   1565 C5'       -5.6801    -6.0757  1720.3976 C.3      530 DC      0.0000
   1566 C4'       -4.3210    -6.1493  1721.1026 C.3      530 DC      0.0000
   1567 O4'       -3.9375    -4.8301  1721.4146 O.3      530 DC      0.0000
   1568 C3'       -4.3485    -6.9325  1722.4125 C.3      530 DC      0.0000
   1569 O3'       -3.3256    -7.9517  1722.4804 O.3      530 DC      0.0000
   1570 C2'       -4.2023    -5.8521  1723.4947 C.3      530 DC      0.0000
   1571 C1'       -3.3799    -4.8315  1722.8185 C.3      530 DC      0.0000
   1572 N1        -3.4771    -3.4174  1723.1713 N.am     530 DC      0.0000
   1573 C2        -2.2729    -2.7163  1723.1444 C.2      530 DC      0.0000
   1574 O2        -1.1954    -3.2601  1722.9375 O.2      530 DC      0.0000
   1575 N3        -2.3217    -1.3809  1723.3976 N.2      530 DC      0.0000
   1576 C4        -3.4850    -0.7264  1723.6309 C.2      530 DC      0.0000
   1577 N4        -3.4044     0.5826  1723.8618 N.pl3    530 DC      0.0000
   1578 C5        -4.7088    -1.4506  1723.6375 C.2      530 DC      0.0000
   1579 C6        -4.6529    -2.7680  1723.3880 C.2      530 DC      0.0000
   1580 H5'       -5.9819    -7.0498  1720.0128 H        530 DC      0.0000
   1581 H5''      -5.6606    -5.3345  1719.5986 H        530 DC      0.0000
   1582 H4'       -3.5863    -6.5918  1720.4299 H        530 DC      0.0000
   1583 H3'       -5.3244    -7.4063  1722.5184 H        530 DC      0.0000
   1584 H2'       -5.1733    -5.4485  1723.7817 H        530 DC      0.0000
   1585 H2''      -3.6803    -6.2498  1724.3649 H        530 DC      0.0000
   1586 H1'       -2.3352    -5.1423  1722.8052 H        530 DC      0.0000
   1587 H5        -5.6493    -0.9581  1723.8360 H        530 DC      0.0000
   1588 H6        -5.5732    -3.3324  1723.3583 H        530 DC      0.0000
   1589 H41       -2.5055     1.0429  1723.8508 H        530 DC      0.0000
   1590 H42       -4.2423     1.1151  1724.0480 H        530 DC      0.0000
   1591 P          4.4833     7.2074  1725.4399 P.3      530 DG      0.0000
   1592 OP1        5.2100     8.5024  1725.6187 O.co2    530 DG      0.0000
   1593 OP2        3.4160     7.2672  1724.3551 O.co2    530 DG      0.0000
   1594 O5'        5.5750     5.9931  1725.2327 O.3      530 DG      0.0000
   1595 C5'        5.8074     5.0470  1726.3284 C.3      530 DG      0.0000
   1596 C4'        6.0017     3.6717  1725.6941 C.3      530 DG      0.0000
   1597 O4'        4.7965     2.9626  1725.5983 O.3      530 DG      0.0000
   1598 C3'        6.5942     3.7027  1724.2878 C.3      530 DG      0.0000
   1599 O3'        7.5539     2.6539  1724.0208 O.3      530 DG      0.0000
   1600 C2'        5.3536     3.5750  1723.3855 C.3      530 DG      0.0000
   1601 C1'        4.4996     2.6256  1724.2093 C.3      530 DG      0.0000
   1602 N9         3.0666     2.8287  1723.9360 N.ar     530 DG      0.0000
   1603 C8         2.3964     4.0187  1723.7794 C.ar     530 DG      0.0000
   1604 N7         1.1155     3.8820  1723.5610 N.ar     530 DG      0.0000
   1605 C5         0.9223     2.5058  1723.5858 C.ar     530 DG      0.0000
   1606 C6        -0.2511     1.7208  1723.4293 C.2      530 DG      0.0000
   1607 O6        -1.4008     2.1394  1723.2325 O.2      530 DG      0.0000
   1608 N1        -0.0408     0.3666  1723.5162 N.am     530 DG      0.0000
   1609 C2         1.1837    -0.1713  1723.7369 C.2      530 DG      0.0000
   1610 N2         1.2337    -1.4991  1723.8002 N.pl3    530 DG      0.0000
   1611 N3         2.3183     0.5214  1723.8946 N.2      530 DG      0.0000
   1612 C4         2.1112     1.8500  1723.8113 C.ar     530 DG      0.0000
   1613 H5'        6.6995     5.3317  1726.8862 H        530 DG      0.0000
   1614 H5''       4.9439     5.0302  1726.9933 H        530 DG      0.0000
   1615 H4'        6.6775     3.1008  1726.3309 H        530 DG      0.0000
   1616 H3'        7.0641     4.6713  1724.1173 H        530 DG      0.0000
   1617 H2'        4.8607     4.5366  1723.2428 H        530 DG      0.0000
   1618 H2''       5.6159     3.1277  1722.4268 H        530 DG      0.0000
   1619 H1'        4.7796     1.5924  1724.0041 H        530 DG      0.0000
   1620 H8         2.8849     4.9805  1723.8321 H        530 DG      0.0000
   1621 H1        -0.8307    -0.2539  1723.4114 H        530 DG      0.0000
   1622 H21        0.3899    -2.0422  1723.6851 H        530 DG      0.0000
   1623 H22        2.1153    -1.9641  1723.9634 H        530 DG      0.0000
   1624 P          7.6405     2.1646  1722.4973 P.3      529 DT      0.0000
   1625 OP1        8.9936     1.6343  1722.1064 O.co2    529 DT      0.0000
   1626 OP2        7.3391     3.4372  1721.7968 O.co2    529 DT      0.0000
   1627 O5'        6.5383     1.0090  1722.3664 O.3      529 DT      0.0000
   1628 C5'        6.9829    -0.3594  1722.6341 C.3      529 DT      0.0000
   1629 C4'        6.0827    -1.3115  1721.8770 C.3      529 DT      0.0000
   1630 O4'        4.7310    -0.8891  1721.8497 O.3      529 DT      0.0000
   1631 C3'        6.4900    -1.4875  1720.4223 C.3      529 DT      0.0000
   1632 O3'        6.3360    -2.8353  1719.9272 O.3      529 DT      0.0000
   1633 C2'        5.5849    -0.5147  1719.6995 C.3      529 DT      0.0000
   1634 C1'        4.3003    -0.7467  1720.4776 C.3      529 DT      0.0000
   1635 N1         3.4876     0.4705  1720.3263 N.am     529 DT      0.0000
   1636 C2         2.1103     0.3071  1720.4330 C.2      529 DT      0.0000
   1637 O2         1.6291    -0.8049  1720.6228 O.2      529 DT      0.0000
   1638 N3         1.3376     1.4282  1720.3129 N.am     529 DT      0.0000
   1639 C4         1.8814     2.6586  1720.0953 C.2      529 DT      0.0000
   1640 O4         1.0797     3.6459  1719.9977 O.2      529 DT      0.0000
   1641 C5         3.2950     2.7945  1719.9889 C.2      529 DT      0.0000
   1642 C7         3.9059     4.1472  1719.7600 C.3      529 DT      0.0000
   1643 C6         4.0449     1.6961  1720.1107 C.2      529 DT      0.0000
   1644 H5'        8.0132    -0.4834  1722.3003 H        529 DT      0.0000
   1645 H5''       6.9167    -0.5640  1723.7027 H        529 DT      0.0000
   1646 H4'        6.1271    -2.2852  1722.3650 H        529 DT      0.0000
   1647 H3'        7.5268    -1.1747  1720.2983 H        529 DT      0.0000
   1648 H2'        5.9362     0.5130  1719.7910 H        529 DT      0.0000
   1649 H2''       5.4648    -0.7955  1718.6531 H        529 DT      0.0000
   1650 H1'        3.7702    -1.6323  1720.1269 H        529 DT      0.0000
   1651 H3         0.3340     1.3422  1720.3875 H        529 DT      0.0000
   1652 H6         5.1189     1.7807  1720.0365 H        529 DT      0.0000
   1653 H71        3.1167     4.8959  1719.6913 H        529 DT      0.0000
   1654 H72        4.5675     4.3922  1720.5908 H        529 DT      0.0000
   1655 H73        4.4774     4.1355  1718.8318 H        529 DT      0.0000
   1656 P          7.7465    -3.2340  1719.1488 P.3      528 DG      0.0000
   1657 OP1        8.7218    -3.9565  1720.0201 O.co2    528 DG      0.0000
   1658 OP2        8.1661    -1.8692  1718.7433 O.co2    528 DG      0.0000
   1659 O5'        7.1978    -4.2758  1718.0680 O.3      528 DG      0.0000
   1660 C5'        6.8977    -5.6299  1718.4915 C.3      528 DG      0.0000
   1661 C4'        5.4612    -5.8685  1718.0437 C.3      528 DG      0.0000
   1662 O4'        4.6823    -4.7203  1718.3144 O.3      528 DG      0.0000
   1663 C3'        5.3089    -6.1854  1716.5560 C.3      528 DG      0.0000
   1664 O3'        4.6388    -7.4158  1716.3475 O.3      528 DG      0.0000
   1665 C2'        4.6215    -4.9605  1715.9793 C.3      528 DG      0.0000
   1666 C1'        3.8622    -4.4146  1717.1654 C.3      528 DG      0.0000
   1667 N9         3.6681    -2.9674  1717.0419 N.ar     528 DG      0.0000
   1668 C8         4.6147    -1.9952  1716.8830 C.ar     528 DG      0.0000
   1669 N7         4.1193    -0.7842  1716.8049 N.ar     528 DG      0.0000
   1670 C5         2.7469    -0.9707  1716.9425 C.ar     528 DG      0.0000
   1671 C6         1.6627    -0.0540  1716.9519 C.2      528 DG      0.0000
   1672 O6         1.7245     1.1673  1716.8529 O.2      528 DG      0.0000
   1673 N1         0.4330    -0.6296  1717.1009 N.am     528 DG      0.0000
   1674 C2         0.2738    -1.9878  1717.2338 C.2      528 DG      0.0000
   1675 N2        -0.9814    -2.4165  1717.3694 N.pl3    528 DG      0.0000
   1676 N3         1.2483    -2.9030  1717.2381 N.2      528 DG      0.0000
   1677 C4         2.4610    -2.3177  1717.0874 C.ar     528 DG      0.0000
   1678 H5'        7.5719    -6.3401  1718.0127 H        528 DG      0.0000
   1679 H5''       6.9729    -5.7111  1719.5758 H        528 DG      0.0000
   1680 H4'        5.0559    -6.7025  1718.6167 H        528 DG      0.0000
   1681 H3'        6.3040    -6.2584  1716.1174 H        528 DG      0.0000
   1682 H2'        5.3501    -4.2374  1715.6129 H        528 DG      0.0000
   1683 H2''       3.9336    -5.2470  1715.1837 H        528 DG      0.0000
   1684 H1'        2.8973    -4.9142  1717.2525 H        528 DG      0.0000
   1685 H8         5.6726    -2.2050  1716.8269 H        528 DG      0.0000
   1686 H1        -0.3854    -0.0379  1717.1138 H        528 DG      0.0000
   1687 H21       -1.7440    -1.7543  1717.3704 H        528 DG      0.0000
   1688 H22       -1.1697    -3.4035  1717.4712 H        528 DG      0.0000
   1689 P          3.4029    -7.8838  1715.4812 P.3      527 DA      0.0000
   1690 OP1        2.5670    -8.9055  1716.2626 O.co2    527 DA      0.0000
   1691 OP2        3.9845    -8.5038  1714.2885 O.co2    527 DA      0.0000
   1692 O5'        2.4482    -6.5753  1715.3064 O.3      527 DA      0.0000
   1693 C5'        1.5461    -6.4021  1716.4629 C.3      527 DA      0.0000
   1694 C4'        0.1391    -6.5361  1715.9350 C.3      527 DA      0.0000
   1695 O4'       -0.4726    -5.2908  1715.7128 O.3      527 DA      0.0000
   1696 C3'        0.0727    -7.2668  1714.5946 C.3      527 DA      0.0000
   1697 O3'       -1.0118    -8.1610  1714.5194 O.3      527 DA      0.0000
   1698 C2'        0.1145    -6.1223  1713.5980 C.3      527 DA      0.0000
   1699 C1'       -0.3976    -4.9085  1714.3218 C.3      527 DA      0.0000
   1700 N9         0.4655    -3.7365  1714.0963 N.ar     527 DA      0.0000
   1701 C8         1.8301    -3.6888  1713.9099 C.ar     527 DA      0.0000
   1702 N7         2.3081    -2.4815  1713.7141 N.ar     527 DA      0.0000
   1703 C5         1.1801    -1.6751  1713.8009 C.ar     527 DA      0.0000
   1704 C6         1.0216    -0.2735  1713.6953 C.ar     527 DA      0.0000
   1705 N6         2.0199     0.5657  1713.4828 N.pl3    527 DA      0.0000
   1706 N1        -0.2506     0.1961  1713.8190 N.ar     527 DA      0.0000
   1707 C2        -1.3011    -0.6475  1714.0435 C.ar     527 DA      0.0000
   1708 N3        -1.2196    -1.9714  1714.1594 N.ar     527 DA      0.0000
   1709 C4         0.0495    -2.4262  1714.0233 C.ar     527 DA      0.0000
   1710 H5'        1.7418    -7.1703  1717.2109 H        527 DA      0.0000
   1711 H5''       1.6868    -5.4133  1716.8995 H        527 DA      0.0000
   1712 H4'       -0.4541    -7.0900  1716.6627 H        527 DA      0.0000
   1713 H3'        0.9908    -7.8434  1714.4814 H        527 DA      0.0000
   1714 H2'       -0.5210    -6.3458  1712.7411 H        527 DA      0.0000
   1715 H2''       1.1394    -5.9538  1713.2674 H        527 DA      0.0000
   1716 H1'       -1.4017    -4.6815  1713.9636 H        527 DA      0.0000
   1717 H8         2.4541    -4.5703  1713.9239 H        527 DA      0.0000
   1718 H2        -2.2810    -0.2028  1714.1348 H        527 DA      0.0000
   1719 H61        1.9730     1.5241  1713.7982 H        527 DA      0.0000
   1720 H62        2.8443     0.2431  1712.9966 H        527 DA      0.0000
   1721 P         -1.9961    -8.5140  1713.3348 P.3      526 DA      0.0000
   1722 OP1       -3.1905    -9.3662  1713.8547 O.co2    526 DA      0.0000
   1723 OP2       -1.1752    -9.3463  1712.4011 O.co2    526 DA      0.0000
   1724 O5'       -2.6314    -7.1628  1712.8321 O.3      526 DA      0.0000
   1725 C5'       -3.9423    -6.7693  1713.2879 C.3      526 DA      0.0000
   1726 C4'       -4.2833    -5.4728  1712.5860 C.3      526 DA      0.0000
   1727 O4'       -3.2095    -4.5840  1712.4652 O.3      526 DA      0.0000
   1728 C3'       -4.8440    -5.6713  1711.1785 C.3      526 DA      0.0000
   1729 O3'       -6.2204    -5.2488  1711.1470 O.3      526 DA      0.0000
   1730 C2'       -3.8404    -4.9476  1710.2789 C.3      526 DA      0.0000
   1731 C1'       -3.2769    -3.8882  1711.1767 C.3      526 DA      0.0000
   1732 N9        -1.9231    -3.4336  1710.8771 N.ar     526 DA      0.0000
   1733 C8        -0.7760    -4.1749  1710.6823 C.ar     526 DA      0.0000
   1734 N7         0.2981    -3.4458  1710.4769 N.ar     526 DA      0.0000
   1735 C5        -0.1578    -2.1441  1710.5514 C.ar     526 DA      0.0000
   1736 C6         0.5048    -0.9033  1710.4179 C.ar     526 DA      0.0000
   1737 N6         1.8062    -0.7813  1710.1748 N.pl3    526 DA      0.0000
   1738 N1        -0.2920     0.2034  1710.5668 N.ar     526 DA      0.0000
   1739 C2        -1.6118     0.1109  1710.8193 C.ar     526 DA      0.0000
   1740 N3        -2.3040    -1.0239  1710.9582 N.ar     526 DA      0.0000
   1741 C4        -1.5163    -2.1125  1710.8110 C.ar     526 DA      0.0000
   1742 H5'       -4.6732    -7.5365  1713.0328 H        526 DA      0.0000
   1743 H5''      -3.9287    -6.6143  1714.3667 H        526 DA      0.0000
   1744 H4'       -5.0530    -4.9756  1713.1761 H        526 DA      0.0000
   1745 H3'       -4.8080    -6.7350  1710.9435 H        526 DA      0.0000
   1746 H2'       -3.0593    -5.6277  1709.9390 H        526 DA      0.0000
   1747 H2''      -4.3488    -4.4951  1709.4276 H        526 DA      0.0000
   1748 H1'       -3.9583    -3.0395  1711.2378 H        526 DA      0.0000
   1749 H8        -0.7620    -5.2547  1710.6973 H        526 DA      0.0000
   1750 H2        -2.1597     1.0363  1710.9184 H        526 DA      0.0000
   1751 H61        2.2201     0.0919  1710.4688 H        526 DA      0.0000
   1752 H62        2.3432    -1.5104  1709.7275 H        526 DA      0.0000
   1753 P         -7.0353    -5.3480  1709.7620 P.3      525 DT      0.0000
   1754 OP1       -8.5255    -5.2099  1709.8202 O.co2    525 DT      0.0000
   1755 OP2       -6.5327    -6.6593  1709.2494 O.co2    525 DT      0.0000
   1756 O5'       -6.4637    -3.9492  1709.0589 O.3      525 DT      0.0000
   1757 C5'       -6.4133    -2.8987  1710.0712 C.3      525 DT      0.0000
   1758 C4'       -6.4387    -1.5688  1709.3883 C.3      525 DT      0.0000
   1759 O4'       -5.1720    -1.0096  1709.2078 O.3      525 DT      0.0000
   1760 C3'       -7.1168    -1.5810  1708.0270 C.3      525 DT      0.0000
   1761 O3'       -7.8654    -0.3887  1707.7597 O.3      525 DT      0.0000
   1762 C2'       -5.8878    -1.7936  1707.1337 C.3      525 DT      0.0000
   1763 C1'       -4.8792    -0.8638  1707.7737 C.3      525 DT      0.0000
   1764 N1        -3.4992    -1.3314  1707.5437 N.am     525 DT      0.0000
   1765 C2        -2.5108    -0.3706  1707.4221 C.2      525 DT      0.0000
   1766 O2        -2.7821     0.8306  1707.4589 O.2      525 DT      0.0000
   1767 N3        -1.2204    -0.7945  1707.2547 N.am     525 DT      0.0000
   1768 C4        -0.8977    -2.1149  1707.2062 C.2      525 DT      0.0000
   1769 O4         0.3191    -2.4163  1707.0207 O.2      525 DT      0.0000
   1770 C5        -1.9264    -3.0868  1707.3546 C.2      525 DT      0.0000
   1771 C7        -1.6055    -4.5616  1707.3025 C.3      525 DT      0.0000
   1772 C6        -3.1806    -2.6567  1707.5276 C.2      525 DT      0.0000
   1773 H5'       -7.2748    -2.9868  1710.7333 H        525 DT      0.0000
   1774 H5''      -5.4954    -2.9942  1710.6512 H        525 DT      0.0000
   1775 H4'       -7.0045    -0.8889  1710.0253 H        525 DT      0.0000
   1776 H3'       -7.7739    -2.4476  1707.9550 H        525 DT      0.0000
   1777 H2'       -5.5488    -2.8291  1707.1643 H        525 DT      0.0000
   1778 H2''      -6.0984    -1.4873  1706.1091 H        525 DT      0.0000
   1779 H1'       -5.0144     0.1649  1707.4397 H        525 DT      0.0000
   1780 H3        -0.4863    -0.1068  1707.1646 H        525 DT      0.0000
   1781 H6        -3.9681    -3.3841  1707.6589 H        525 DT      0.0000
   1782 H71       -1.7925    -4.9394  1706.2973 H        525 DT      0.0000
   1783 H72       -2.2353    -5.0956  1708.0140 H        525 DT      0.0000
   1784 H73       -0.5572    -4.7146  1707.5590 H        525 DT      0.0000
   1785 P         -8.5326    -0.2916  1706.2698 P.3      524 DT      0.0000
   1786 OP1      -10.0549    -0.3252  1706.4178 O.co2    524 DT      0.0000
   1787 OP2       -8.0620    -1.5507  1705.6000 O.co2    524 DT      0.0000
   1788 O5'       -8.0355     1.0238  1705.6178 O.3      524 DT      0.0000
   1789 C5'       -7.7013     2.1908  1706.3692 C.3      524 DT      0.0000
   1790 C4'       -6.6487     2.9443  1705.6212 C.3      524 DT      0.0000
   1791 O4'       -5.3550     2.4066  1705.5642 O.3      524 DT      0.0000
   1792 C3'       -6.9502     3.3237  1704.1551 C.3      524 DT      0.0000
   1793 O3'       -6.2949     4.5913  1704.0514 O.3      524 DT      0.0000
   1794 C2'       -6.2012     2.2236  1703.3914 C.3      524 DT      0.0000
   1795 C1'       -4.9027     2.3093  1704.1671 C.3      524 DT      0.0000
   1796 N1        -4.0162     1.1469  1704.0609 N.am     524 DT      0.0000
   1797 C2        -2.6449     1.4354  1704.0603 C.2      524 DT      0.0000
   1798 O2        -2.2394     2.5988  1704.1033 O.2      524 DT      0.0000
   1799 N3        -1.7872     0.3745  1704.0069 N.am     524 DT      0.0000
   1800 C4        -2.2154    -0.9184  1703.9471 C.2      524 DT      0.0000
   1801 O4        -1.3400    -1.8333  1703.8847 O.2      524 DT      0.0000
   1802 C5        -3.6122    -1.1827  1703.9553 C.2      524 DT      0.0000
   1803 C7        -4.1019    -2.6144  1703.8939 C.3      524 DT      0.0000
   1804 C6        -4.4475    -0.1418  1704.0218 C.2      524 DT      0.0000
   1805 H5'       -8.5856     2.8163  1706.4914 H        524 DT      0.0000
   1806 H5''      -7.3193     1.9002  1707.3477 H        524 DT      0.0000
   1807 H4'       -6.5436     3.8925  1706.1484 H        524 DT      0.0000
   1808 H3'       -8.0152     3.3643  1703.9264 H        524 DT      0.0000
   1809 H2'       -6.0724     2.4630  1702.3358 H        524 DT      0.0000
   1810 H2''      -6.6791     1.2529  1703.5230 H        524 DT      0.0000
   1811 H1'       -4.3628     3.2143  1703.8881 H        524 DT      0.0000
   1812 H3        -0.7936     0.5552  1704.0117 H        524 DT      0.0000
   1813 H6        -5.5103    -0.3325  1704.0455 H        524 DT      0.0000
   1814 H71       -3.2476    -3.2895  1703.8451 H        524 DT      0.0000
   1815 H72       -4.7217    -2.7484  1703.0073 H        524 DT      0.0000
   1816 H73       -4.6895    -2.8359  1704.7849 H        524 DT      0.0000
   1817 P         -6.4476     5.6274  1702.9051 P.3      523 DC      0.0000
   1818 OP1       -6.7010     7.0076  1703.5143 O.co2    523 DC      0.0000
   1819 OP2       -7.6481     5.1949  1702.1233 O.co2    523 DC      0.0000
   1820 O5'       -5.0022     5.4930  1702.1657 O.3      523 DC      0.0000
   1821 C5'       -3.8796     6.0949  1702.8902 C.3      523 DC      0.0000
   1822 C4'       -2.9386     6.6250  1701.8397 C.3      523 DC      0.0000
   1823 O4'       -1.8640     5.7479  1701.5944 O.3      523 DC      0.0000
   1824 C3'       -3.5727     6.9005  1700.4753 C.3      523 DC      0.0000
   1825 O3'       -3.0052     8.0040  1699.7660 O.3      523 DC      0.0000
   1826 C2'       -3.3734     5.5421  1699.7892 C.3      523 DC      0.0000
   1827 C1'       -2.0197     5.0929  1700.3358 C.3      523 DC      0.0000
   1828 N1        -2.0423     3.6159  1700.4535 N.am     523 DC      0.0000
   1829 C2        -0.8108     2.9628  1700.4708 C.2      523 DC      0.0000
   1830 O2         0.2513     3.5965  1700.4021 O.2      523 DC      0.0000
   1831 N3        -0.8270     1.5980  1700.5740 N.2      523 DC      0.0000
   1832 C4        -1.9861     0.8927  1700.6448 C.2      523 DC      0.0000
   1833 N4        -1.9500    -0.4378  1700.7467 N.pl3    523 DC      0.0000
   1834 C5        -3.2295     1.5840  1700.6197 C.2      523 DC      0.0000
   1835 C6        -3.2126     2.9246  1700.5261 C.2      523 DC      0.0000
   1836 H5'       -4.2322     6.9069  1703.5262 H        523 DC      0.0000
   1837 H5''      -3.3771     5.3393  1703.4941 H        523 DC      0.0000
   1838 H4'       -2.5239     7.5631  1702.2085 H        523 DC      0.0000
   1839 H3'       -4.6399     7.0766  1700.6095 H        523 DC      0.0000
   1840 H2'       -3.3449     5.6488  1698.7048 H        523 DC      0.0000
   1841 H2''      -4.1569     4.8445  1700.0851 H        523 DC      0.0000
   1842 H1'       -1.2244     5.3994  1699.6564 H        523 DC      0.0000
   1843 H5        -4.1637     1.0448  1700.6744 H        523 DC      0.0000
   1844 H6        -4.1476     3.4650  1700.5080 H        523 DC      0.0000
   1845 H41       -1.0622    -0.9188  1700.7674 H        523 DC      0.0000
   1846 H42       -2.8106    -0.9635  1700.8031 H        523 DC      0.0000
   1847 P         -2.7895     8.0944  1698.1340 P.3      522 DA      0.0000
   1848 OP1       -2.7187     9.5551  1697.7445 O.co2    522 DA      0.0000
   1849 OP2       -3.9460     7.3513  1697.5639 O.co2    522 DA      0.0000
   1850 O5'       -1.3321     7.4642  1697.9685 O.3      522 DA      0.0000
   1851 C5'       -0.1760     8.2633  1698.4339 C.3      522 DA      0.0000
   1852 C4'        0.9433     7.7290  1697.5566 C.3      522 DA      0.0000
   1853 O4'        1.1447     6.3353  1697.8240 O.3      522 DA      0.0000
   1854 C3'        0.6249     7.7934  1696.0522 C.3      522 DA      0.0000
   1855 O3'        1.7952     7.6511  1695.2632 O.3      522 DA      0.0000
   1856 C2'       -0.1533     6.4780  1695.8647 C.3      522 DA      0.0000
   1857 C1'        0.8840     5.6023  1696.6194 C.3      522 DA      0.0000
   1858 N9         0.2303     4.3057  1696.7648 N.ar     522 DA      0.0000
   1859 C8        -1.1254     4.0761  1696.8377 C.ar     522 DA      0.0000
   1860 N7        -1.4323     2.8083  1696.9523 N.ar     522 DA      0.0000
   1861 C5        -0.1818     2.1648  1696.9459 C.ar     522 DA      0.0000
   1862 C6         0.1582     0.7876  1697.0459 C.ar     522 DA      0.0000
   1863 N6        -0.7412    -0.1929  1697.1687 N.pl3    522 DA      0.0000
   1864 N1         1.4963     0.5341  1697.0107 N.ar     522 DA      0.0000
   1865 C2         2.4095     1.5289  1696.8918 C.ar     522 DA      0.0000
   1866 N3         2.1612     2.8385  1696.8004 N.ar     522 DA      0.0000
   1867 C4         0.8382     3.0763  1696.8279 C.ar     522 DA      0.0000
   1868 H5'       -0.3369     9.3284  1698.2672 H        522 DA      0.0000
   1869 H5''       0.0308     8.0650  1699.4855 H        522 DA      0.0000
   1870 H4'        1.8626     8.2780  1697.7606 H        522 DA      0.0000
   1871 H3'        0.0389     8.6720  1695.7826 H        522 DA      0.0000
   1872 H2'       -1.1310     6.4896  1696.3464 H        522 DA      0.0000
   1873 H2''      -0.2260     6.1997  1694.8134 H        522 DA      0.0000
   1874 H1'        1.7962     5.5032  1696.0310 H        522 DA      0.0000
   1875 H8        -1.8631     4.8642  1696.8037 H        522 DA      0.0000
   1876 H2         3.4474     1.2313  1696.8686 H        522 DA      0.0000
   1877 H61       -1.7268     0.0262  1697.1935 H        522 DA      0.0000
   1878 H62       -0.4354    -1.1530  1697.2368 H        522 DA      0.0000
   1879 P          2.1378     8.7011  1694.1223 P.3      521 DC      0.0000
   1880 OP1        2.8221     9.8113  1694.9025 O.co2    521 DC      0.0000
   1881 OP2        0.9469     9.1572  1693.3966 O.co2    521 DC      0.0000
   1882 O5'        3.0946     7.7865  1693.1464 O.3      521 DC      0.0000
   1883 C5'        4.2244     7.1061  1693.8154 C.3      521 DC      0.0000
   1884 C4'        4.4200     5.7590  1693.1714 C.3      521 DC      0.0000
   1885 O4'        3.7025     4.7091  1693.8085 O.3      521 DC      0.0000
   1886 C3'        3.9938     5.7345  1691.6936 C.3      521 DC      0.0000
   1887 O3'        4.7727     4.8642  1690.8823 O.3      521 DC      0.0000
   1888 C2'        2.5603     5.1317  1691.8592 C.3      521 DC      0.0000
   1889 C1'        3.0778     3.9464  1692.7548 C.3      521 DC      0.0000
   1890 N1         1.9549     3.0777  1692.9927 N.am     521 DC      0.0000
   1891 C2         2.2013     1.7517  1693.3098 C.2      521 DC      0.0000
   1892 O2         3.2776     1.1601  1693.4503 O.2      521 DC      0.0000
   1893 N3         1.1272     0.9292  1693.5080 N.2      521 DC      0.0000
   1894 C4        -0.1598     1.3776  1693.3921 C.2      521 DC      0.0000
   1895 N4        -1.1826     0.5357  1693.6081 N.pl3    521 DC      0.0000
   1896 C5        -0.3969     2.7406  1693.0624 C.2      521 DC      0.0000
   1897 C6         0.6699     3.5254  1692.8707 C.2      521 DC      0.0000
   1898 H5'        5.1303     7.7019  1693.7039 H        521 DC      0.0000
   1899 H5''       3.9990     6.9768  1694.8740 H        521 DC      0.0000
   1900 H4'        5.4816     5.5161  1693.2181 H        521 DC      0.0000
   1901 H3'        3.9557     6.7400  1691.2745 H        521 DC      0.0000
   1902 H2'        1.8676     5.7957  1692.3763 H        521 DC      0.0000
   1903 H2''       2.1549     4.7787  1690.9110 H        521 DC      0.0000
   1904 H1'        3.8451     3.3964  1692.2099 H        521 DC      0.0000
   1905 H5        -1.4008     3.1280  1692.9703 H        521 DC      0.0000
   1906 H6         0.5076     4.5601  1692.6075 H        521 DC      0.0000
   1907 H41       -1.0010    -0.4283  1693.8486 H        521 DC      0.0000
   1908 H42       -2.1338     0.8662  1693.5302 H        521 DC      0.0000
   1909 P         -1.9344    -9.8306  1727.4814 P.3      531 DG      0.0000
   1910 OP1       -2.8787   -10.9751  1727.4799 O.co2    531 DG      0.0000
   1911 OP2       -2.4429    -8.8380  1728.5371 O.co2    531 DG      0.0000
   1912 O5'       -0.3907   -10.1726  1727.6598 O.3      531 DG      0.0000
   1913 C5'        0.6486   -10.2293  1726.6598 C.3      531 DG      0.0000
   1914 C4'        1.8273    -9.4197  1727.1586 C.3      531 DG      0.0000
   1915 O4'        1.7621    -8.0737  1726.7395 O.3      531 DG      0.0000
   1916 C3'        2.0900    -9.3958  1728.6508 C.3      531 DG      0.0000
   1917 O3'        3.4509    -9.7986  1728.9628 O.3      531 DG      0.0000
   1918 C2'        1.7732    -7.9737  1729.0727 C.3      531 DG      0.0000
   1919 C1'        2.0116    -7.1703  1727.8170 C.3      531 DG      0.0000
   1920 N9         1.1153    -6.0003  1727.7880 N.ar     531 DG      0.0000
   1921 C8        -0.2388    -5.9331  1728.0169 C.ar     531 DG      0.0000
   1922 N7        -0.7387    -4.7213  1727.9272 N.ar     531 DG      0.0000
   1923 C5         0.3632    -3.9312  1727.6102 C.ar     531 DG      0.0000
   1924 C6         0.4923    -2.5385  1727.3842 C.2      531 DG      0.0000
   1925 O6        -0.3881    -1.6779  1727.4055 O.2      531 DG      0.0000
   1926 N1         1.7604    -2.1093  1727.1027 N.am     531 DG      0.0000
   1927 C2         2.7786    -2.9066  1727.0421 C.2      531 DG      0.0000
   1928 N2         3.8366    -2.2572  1726.7453 N.pl3    531 DG      0.0000
   1929 N3         2.7530    -4.2893  1727.2508 N.2      531 DG      0.0000
   1930 C4         1.5070    -4.7025  1727.5234 C.ar     531 DG      0.0000
   1931 H5'        0.9522   -11.2641  1726.5011 H        531 DG      0.0000
   1932 H5''       0.2819    -9.8065  1725.7245 H        531 DG      0.0000
   1933 H4'        2.7159    -9.8468  1726.6939 H        531 DG      0.0000
   1934 H3'        1.3961   -10.0760  1729.1448 H        531 DG      0.0000
   1935 H2'        0.7371    -7.8864  1729.3997 H        531 DG      0.0000
   1936 H2''       2.4501    -7.6520  1729.8642 H        531 DG      0.0000
   1937 H1'        3.0494    -6.8385  1727.7851 H        531 DG      0.0000
   1938 H8        -0.8389    -6.8003  1728.2499 H        531 DG      0.0000
   1939 H1         1.9091    -1.1246  1726.9343 H        531 DG      0.0000
   1940 H21        3.7923    -1.2586  1726.6009 H        531 DG      0.0000
   1941 H22        4.7180    -2.7420  1726.6548 H        531 DG      0.0000
   1942 P          4.0929    -9.5994  1730.3913 P.3      532 DT      0.0000
   1943 OP1        4.9478   -10.7297  1730.9030 O.co2    532 DT      0.0000
   1944 OP2        2.8575    -9.5965  1731.3100 O.co2    532 DT      0.0000
   1945 O5'        4.7509    -8.1962  1730.4199 O.3      532 DT      0.0000
   1946 C5'        6.1827    -7.9870  1730.2759 C.3      532 DT      0.0000
   1947 C4'        6.3565    -6.4838  1730.3334 C.3      532 DT      0.0000
   1948 O4'        5.1552    -5.7973  1730.0583 O.3      532 DT      0.0000
   1949 C3'        6.8306    -5.9133  1731.6462 C.3      532 DT      0.0000
   1950 O3'        8.1321    -5.3384  1731.4580 O.3      532 DT      0.0000
   1951 C2'        5.8001    -4.8547  1732.0384 C.3      532 DT      0.0000
   1952 C1'        5.2493    -4.4852  1730.6857 C.3      532 DT      0.0000
   1953 N1         3.8915    -3.9490  1730.7823 N.am     532 DT      0.0000
   1954 C2         3.7292    -2.6046  1730.5844 C.2      532 DT      0.0000
   1955 O2         4.6726    -1.8540  1730.3462 O.2      532 DT      0.0000
   1956 N3         2.4546    -2.1118  1730.6654 N.am     532 DT      0.0000
   1957 C4         1.3800    -2.8918  1730.9213 C.2      532 DT      0.0000
   1958 O4         0.2719    -2.2962  1730.9666 O.2      532 DT      0.0000
   1959 C5         1.5689    -4.2971  1731.1210 C.2      532 DT      0.0000
   1960 C7         0.4074    -5.1944  1731.4009 C.3      532 DT      0.0000
   1961 C6         2.8191    -4.7703  1731.0395 C.2      532 DT      0.0000
   1962 H5'        6.7255    -8.4685  1731.0894 H        532 DT      0.0000
   1963 H5''       6.5253    -8.3702  1729.3147 H        532 DT      0.0000
   1964 H4'        7.0813    -6.2040  1729.5689 H        532 DT      0.0000
   1965 H3'        6.8716    -6.6963  1732.4033 H        532 DT      0.0000
   1966 H2'        5.0276    -5.2676  1732.6872 H        532 DT      0.0000
   1967 H2''       6.2835    -3.9979  1732.5076 H        532 DT      0.0000
   1968 H1'        5.9159    -3.8172  1730.1403 H        532 DT      0.0000
   1969 H3         2.3104    -1.1217  1730.5279 H        532 DT      0.0000
   1970 H6         2.9899    -5.8275  1731.1799 H        532 DT      0.0000
   1971 H71        0.1429    -5.7403  1730.4954 H        532 DT      0.0000
   1972 H72       -0.4437    -4.5959  1731.7257 H        532 DT      0.0000
   1973 H73        0.6753    -5.9012  1732.1862 H        532 DT      0.0000
   1974 P          9.1131    -5.5512  1732.7379 P.3      533 DG      0.0000
   1975 OP1       10.4420    -5.7597  1732.0228 O.co2    533 DG      0.0000
   1976 OP2        8.6596    -6.7066  1733.4914 O.co2    533 DG      0.0000
   1977 O5'        8.9140    -4.0502  1733.3474 O.3      533 DG      0.0000
   1978 C5'        9.0303    -3.0600  1732.2568 C.3      533 DG      0.0000
   1979 C4'        8.5192    -1.7488  1732.7769 C.3      533 DG      0.0000
   1980 O4'        7.1520    -1.4931  1732.5963 O.3      533 DG      0.0000
   1981 C3'        8.8122    -1.5553  1734.2849 C.3      533 DG      0.0000
   1982 O3'        9.5167    -0.3000  1734.4438 O.3      533 DG      0.0000
   1983 C2'        7.4496    -1.6498  1734.9375 C.3      533 DG      0.0000
   1984 C1'        6.5464    -1.0687  1733.8559 C.3      533 DG      0.0000
   1985 N9         5.1577    -1.5106  1734.0255 N.ar     533 DG      0.0000
   1986 C8         4.6895    -2.7508  1734.3617 C.ar     533 DG      0.0000
   1987 N7         3.3803    -2.8378  1734.4474 N.ar     533 DG      0.0000
   1988 C5         2.9601    -1.5513  1734.1174 C.ar     533 DG      0.0000
   1989 C6         1.6528    -0.9940  1734.0231 C.2      533 DG      0.0000
   1990 O6         0.5645    -1.5564  1734.2154 O.2      533 DG      0.0000
   1991 N1         1.6263     0.3405  1733.6880 N.am     533 DG      0.0000
   1992 C2         2.7667     1.0499  1733.4642 C.2      533 DG      0.0000
   1993 N2         2.5501     2.3352  1733.1554 N.pl3    533 DG      0.0000
   1994 N3         4.0080     0.5748  1733.5353 N.2      533 DG      0.0000
   1995 C4         4.0362    -0.7287  1733.8619 C.ar     533 DG      0.0000
   1996 H5'       10.0732    -2.9593  1731.9563 H        533 DG      0.0000
   1997 H5''       8.4299    -3.3779  1731.4044 H        533 DG      0.0000
   1998 H4'        9.0604    -0.9653  1732.2463 H        533 DG      0.0000
   1999 H3'        9.4415    -2.3716  1734.6397 H        533 DG      0.0000
   2000 H2'        7.1871    -2.6839  1735.1604 H        533 DG      0.0000
   2001 H2''       7.4115    -1.0396  1735.8399 H        533 DG      0.0000
   2002 H1'        6.5802     0.0192  1733.9149 H        533 DG      0.0000
   2003 H8         5.3428    -3.5916  1734.5423 H        533 DG      0.0000
   2004 H1         0.7345     0.8075  1733.6057 H        533 DG      0.0000
   2005 H21        1.6060     2.6904  1733.1052 H        533 DG      0.0000
   2006 H22        3.3311     2.9492  1732.9728 H        533 DG      0.0000
   2007 P         10.0706     0.1574  1735.8322 P.3      534 DA      0.0000
   2008 OP1       11.4520    -0.2882  1736.1875 O.co2    534 DA      0.0000
   2009 OP2        9.0652    -0.6554  1736.7279 O.co2    534 DA      0.0000
   2010 O5'        9.6664     1.6705  1736.0813 O.3      534 DA      0.0000
   2011 C5'        9.3478     2.6188  1735.0523 C.3      534 DA      0.0000
   2012 C4'        8.0824     3.3149  1735.5266 C.3      534 DA      0.0000
   2013 O4'        6.9773     2.4413  1735.4362 O.3      534 DA      0.0000
   2014 C3'        8.1039     3.8576  1736.9556 C.3      534 DA      0.0000
   2015 O3'        7.6036     5.2096  1737.0079 O.3      534 DA      0.0000
   2016 C2'        7.2040     2.8570  1737.6911 C.3      534 DA      0.0000
   2017 C1'        6.1526     2.6393  1736.6135 C.3      534 DA      0.0000
   2018 N9         5.3066     1.4636  1736.8419 N.ar     534 DA      0.0000
   2019 C8         5.6541     0.1603  1737.0576 C.ar     534 DA      0.0000
   2020 N7         4.6280    -0.6445  1737.2226 N.ar     534 DA      0.0000
   2021 C5         3.5272     0.1873  1737.0824 C.ar     534 DA      0.0000
   2022 C6         2.1412    -0.0787  1737.1304 C.ar     534 DA      0.0000
   2023 N6         1.6111    -1.2842  1737.3502 N.pl3    534 DA      0.0000
   2024 N1         1.3330     1.0063  1736.9406 N.ar     534 DA      0.0000
   2025 C2         1.8497     2.2377  1736.7228 C.ar     534 DA      0.0000
   2026 N3         3.1407     2.5624  1736.6646 N.ar     534 DA      0.0000
   2027 C4         3.9214     1.4826  1736.8514 C.ar     534 DA      0.0000
   2028 H5'        9.1709     2.1092  1734.1051 H        534 DA      0.0000
   2029 H5''      10.1563     3.3419  1734.9445 H        534 DA      0.0000
   2030 H4'        7.8959     4.1545  1734.8568 H        534 DA      0.0000
   2031 H3'        9.1164     3.8166  1737.3571 H        534 DA      0.0000
   2032 H2'        7.7331     1.9362  1737.9366 H        534 DA      0.0000
   2033 H2''       6.7649     3.3061  1738.5820 H        534 DA      0.0000
   2034 H1'        5.5374     3.5318  1736.4990 H        534 DA      0.0000
   2035 H8         6.6792    -0.1783  1737.0897 H        534 DA      0.0000
   2036 H2         1.1420     3.0412  1736.5815 H        534 DA      0.0000
   2037 H61        2.1046    -2.1601  1737.2528 H        534 DA      0.0000
   2038 H62        0.6240    -1.4120  1737.1786 H        534 DA      0.0000
   2039 P         -8.5368     0.1158  1739.4548 P.3      534 DT      0.0000
   2040 OP1      -10.0589     0.1549  1739.6028 O.co2    534 DT      0.0000
   2041 OP2       -8.1268    -1.1643  1738.7850 O.co2    534 DT      0.0000
   2042 O5'       -7.9775     1.4060  1738.8028 O.3      534 DT      0.0000
   2043 C5'       -7.5880     2.5557  1739.5542 C.3      534 DT      0.0000
   2044 C4'       -6.5006     3.2581  1738.8062 C.3      534 DT      0.0000
   2045 O4'       -5.2341     2.6594  1738.7492 O.3      534 DT      0.0000
   2046 C3'       -6.7837     3.6515  1737.3402 C.3      534 DT      0.0000
   2047 O3'       -6.0687     4.8865  1737.2364 O.3      534 DT      0.0000
   2048 C2'       -6.0880     2.5169  1736.5764 C.3      534 DT      0.0000
   2049 C1'       -4.7869     2.5406  1737.3521 C.3      534 DT      0.0000
   2050 N1        -3.9569     1.3372  1737.2460 N.am     534 DT      0.0000
   2051 C2        -2.5734     1.5600  1737.2453 C.2      534 DT      0.0000
   2052 O2        -2.1129     2.7027  1737.2884 O.2      534 DT      0.0000
   2053 N3        -1.7673     0.4593  1737.1919 N.am     534 DT      0.0000
   2054 C4        -2.2567    -0.8116  1737.1322 C.2      534 DT      0.0000
   2055 O4        -1.4259    -1.7673  1737.0698 O.2      534 DT      0.0000
   2056 C5        -3.6645    -1.0090  1737.1404 C.2      534 DT      0.0000
   2057 C7        -4.2220    -2.4157  1737.0790 C.3      534 DT      0.0000
   2058 C6        -4.4492     0.0705  1737.2069 C.2      534 DT      0.0000
   2059 H5'       -8.4415     3.2227  1739.6764 H        534 DT      0.0000
   2060 H5''      -7.2203     2.2472  1740.5328 H        534 DT      0.0000
   2061 H4'       -6.3504     4.2002  1739.3335 H        534 DT      0.0000
   2062 H3'       -7.8455     3.7429  1737.1115 H        534 DT      0.0000
   2063 H2'       -5.9480     2.7499  1735.5208 H        534 DT      0.0000
   2064 H2''      -6.6117     1.5701  1736.7080 H        534 DT      0.0000
   2065 H1'       -4.2045     3.4187  1737.0731 H        534 DT      0.0000
   2066 H3        -0.7662     0.5924  1737.1968 H        534 DT      0.0000
   2067 H6        -5.5199    -0.0692  1737.2306 H        534 DT      0.0000
   2068 H71       -3.4008    -3.1308  1737.0302 H        534 DT      0.0000
   2069 H72       -4.8475    -2.5200  1736.1924 H        534 DT      0.0000
   2070 H73       -4.8195    -2.6089  1737.9699 H        534 DT      0.0000
   2071 P         -6.1718     5.9286  1736.0902 P.3      533 DC      0.0000
   2072 OP1       -6.3591     7.3193  1736.6993 O.co2    533 DC      0.0000
   2073 OP2       -7.3916     5.5539  1735.3083 O.co2    533 DC      0.0000
   2074 O5'       -4.7344     5.7254  1735.3508 O.3      533 DC      0.0000
   2075 C5'       -3.5844     6.2731  1736.0753 C.3      533 DC      0.0000
   2076 C4'       -2.6192     6.7576  1735.0248 C.3      533 DC      0.0000
   2077 O4'       -1.5877     5.8303  1734.7795 O.3      533 DC      0.0000
   2078 C3'       -3.2394     7.0631  1733.6603 C.3      533 DC      0.0000
   2079 O3'       -2.6199     8.1382  1732.9510 O.3      533 DC      0.0000
   2080 C2'       -3.1052     5.6967  1732.9742 C.3      533 DC      0.0000
   2081 C1'       -1.7744     5.1834  1733.5208 C.3      533 DC      0.0000
   2082 N1        -1.8675     3.7092  1733.6386 N.am     533 DC      0.0000
   2083 C2        -0.6685     2.9981  1733.6558 C.2      533 DC      0.0000
   2084 O2         0.4226     3.5804  1733.5872 O.2      533 DC      0.0000
   2085 N3        -0.7498     1.6356  1733.7591 N.2      533 DC      0.0000
   2086 C4        -1.9413     0.9864  1733.8298 C.2      533 DC      0.0000
   2087 N4        -1.9687    -0.3443  1733.9318 N.pl3    533 DC      0.0000
   2088 C5        -3.1502     1.7363  1733.8047 C.2      533 DC      0.0000
   2089 C6        -3.0694     3.0746  1733.7111 C.2      533 DC      0.0000
   2090 H5'       -3.8978     7.1010  1736.7112 H        533 DC      0.0000
   2091 H5''      -3.1185     5.4943  1736.6792 H        533 DC      0.0000
   2092 H4'       -2.1602     7.6749  1735.3935 H        533 DC      0.0000
   2093 H3'       -4.2970     7.2900  1733.7945 H        533 DC      0.0000
   2094 H2'       -3.0715     5.8019  1731.8898 H        533 DC      0.0000
   2095 H2''      -3.9211     5.0373  1733.2702 H        533 DC      0.0000
   2096 H1'       -0.9654     5.4517  1732.8414 H        533 DC      0.0000
   2097 H5        -4.1091     1.2422  1733.8595 H        533 DC      0.0000
   2098 H6        -3.9776     3.6589  1733.6930 H        533 DC      0.0000
   2099 H41       -1.1048    -0.8671  1733.9524 H        533 DC      0.0000
   2100 H42       -2.8534    -0.8283  1733.9881 H        533 DC      0.0000
   2101 P         -2.4001     8.2183  1731.3190 P.3      532 DA      0.0000
   2102 OP1       -2.2597     9.6740  1730.9296 O.co2    532 DA      0.0000
   2103 OP2       -3.5908     7.5312  1730.7490 O.co2    532 DA      0.0000
   2104 O5'       -0.9745     7.5193  1731.1535 O.3      532 DA      0.0000
   2105 C5'        0.2184     8.2623  1731.6189 C.3      532 DA      0.0000
   2106 C4'        1.3110     7.6752  1730.7417 C.3      532 DA      0.0000
   2107 O4'        1.4456     6.2735  1731.0090 O.3      532 DA      0.0000
   2108 C3'        0.9960     7.7547  1729.2373 C.3      532 DA      0.0000
   2109 O3'        2.1582     7.5567  1728.4482 O.3      532 DA      0.0000
   2110 C2'        0.1559     6.4780  1729.0498 C.3      532 DA      0.0000
   2111 C1'        1.1503     5.5537  1729.8044 C.3      532 DA      0.0000
   2112 N9         0.4355     4.2898  1729.9499 N.ar     532 DA      0.0000
   2113 C8        -0.9296     4.1251  1730.0227 C.ar     532 DA      0.0000
   2114 N7        -1.2966     2.8734  1730.1374 N.ar     532 DA      0.0000
   2115 C5        -0.0783     2.1710  1730.1310 C.ar     532 DA      0.0000
   2116 C6         0.1956     0.7792  1730.2309 C.ar     532 DA      0.0000
   2117 N6        -0.7496    -0.1573  1730.3538 N.pl3    532 DA      0.0000
   2118 N1         1.5201     0.4621  1730.1958 N.ar     532 DA      0.0000
   2119 C2         2.4797     1.4122  1730.0769 C.ar     532 DA      0.0000
   2120 N3         2.2941     2.7322  1729.9854 N.ar     532 DA      0.0000
   2121 C4         0.9840     3.0328  1730.0130 C.ar     532 DA      0.0000
   2122 H5'        0.1086     9.3339  1731.4522 H        532 DA      0.0000
   2123 H5''       0.4156     8.0544  1732.6706 H        532 DA      0.0000
   2124 H4'        2.2555     8.1797  1730.9456 H        532 DA      0.0000
   2125 H3'        0.4526     8.6603  1728.9676 H        532 DA      0.0000
   2126 H2'       -0.8201     6.5362  1729.5314 H        532 DA      0.0000
   2127 H2''       0.0701     6.2034  1727.9984 H        532 DA      0.0000
   2128 H1'        2.0567     5.4112  1729.2160 H        532 DA      0.0000
   2129 H8        -1.6289     4.9475  1729.9887 H        532 DA      0.0000
   2130 H2         3.5022     1.0655  1730.0537 H        532 DA      0.0000
   2131 H61       -1.7236     0.1085  1730.3785 H        532 DA      0.0000
   2132 H62       -0.4899    -1.1309  1730.4219 H        532 DA      0.0000
   2133 P          2.5505     8.5892  1727.3073 P.3      531 DC      0.0000
   2134 OP1        3.2870     9.6655  1728.0876 O.co2    531 DC      0.0000
   2135 OP2        1.3827     9.1016  1726.5817 O.co2    531 DC      0.0000
   2136 O5'        3.4626     7.6299  1726.3314 O.3      531 DC      0.0000
   2137 C5'        4.5586     6.8965  1727.0004 C.3      531 DC      0.0000
   2138 C4'        4.6898     5.5416  1726.3564 C.3      531 DC      0.0000
   2139 O4'        3.9229     4.5271  1726.9935 O.3      531 DC      0.0000
   2140 C3'        4.2628     5.5375  1724.8786 C.3      531 DC      0.0000
   2141 O3'        4.9994     4.6309  1724.0673 O.3      531 DC      0.0000
   2142 C2'        2.8022     5.0037  1725.0442 C.3      531 DC      0.0000
   2143 C1'        3.2626     3.7951  1725.9398 C.3      531 DC      0.0000
   2144 N1         2.0995     2.9809  1726.1777 N.am     531 DC      0.0000
   2145 C2         2.2824     1.6447  1726.4949 C.2      531 DC      0.0000
   2146 O2         3.3292     1.0024  1726.6353 O.2      531 DC      0.0000
   2147 N3         1.1702     0.8744  1726.6931 N.2      531 DC      0.0000
   2148 C4        -0.0939     1.3836  1726.5771 C.2      531 DC      0.0000
   2149 N4        -1.1557     0.5915  1726.7932 N.pl3    531 DC      0.0000
   2150 C5        -0.2656     2.7565  1726.2475 C.2      531 DC      0.0000
   2151 C6         0.8374     3.4894  1726.0558 C.2      531 DC      0.0000
   2152 H5'        5.4919     7.4484  1726.8890 H        531 DC      0.0000
   2153 H5''       4.3273     6.7781  1728.0590 H        531 DC      0.0000
   2154 H4'        5.7385     5.2483  1726.4031 H        531 DC      0.0000
   2155 H3'        4.2728     6.5436  1724.4596 H        531 DC      0.0000
   2156 H2'        2.1420     5.7000  1725.5613 H        531 DC      0.0000
   2157 H2''       2.3804     4.6704  1724.0960 H        531 DC      0.0000
   2158 H1'        4.0027     3.2091  1725.3949 H        531 DC      0.0000
   2159 H5        -1.2500     3.1913  1726.1553 H        531 DC      0.0000
   2160 H6         0.7246     4.5307  1725.7925 H        531 DC      0.0000
   2161 H41       -1.0203    -0.3800  1727.0337 H        531 DC      0.0000
   2162 H42       -2.0901     0.9670  1726.7152 H        531 DC      0.0000
@<TRIPOS>BOND
     1      9     34 1
     2     42     66 1
     3     74     99 1
     4    107    131 1
     5    139    163 1
     6    171    195 1
     7    203    227 1
     8    235    257 1
     9    265    289 1
    10    327    352 1
    11    360    384 1
    12    392    417 1
    13    425    449 1
    14    457    481 1
    15    489    513 1
    16    521    545 1
    17    553    575 1
    18    583    607 1
    19      1      2 1
    20      1      3 1
    21      1      4 1
    22      4      5 1
    23      5      6 1
    24      6      7 1
    25      6      8 1
    26      7     11 1
    27      8      9 1
    28      8     10 1
    29     10     11 1
    30     11     12 1
    31     12     13 ar
    32     12     22 ar
    33     13     14 ar
    34     14     15 ar
    35     15     16 1
    36     15     22 ar
    37     16     17 2
    38     16     18 am
    39     18     19 1
    40     19     20 2
    41     19     21 2
    42     21     22 1
    43     34     35 1
    44     34     36 1
    45     34     37 1
    46     37     38 1
    47     38     39 1
    48     39     40 1
    49     39     41 1
    50     40     44 1
    51     41     42 1
    52     41     43 1
    53     43     44 1
    54     44     45 1
    55     45     46 am
    56     45     53 1
    57     46     47 2
    58     46     48 am
    59     48     49 am
    60     49     50 2
    61     49     51 1
    62     51     52 1
    63     51     53 2
    64     66     67 1
    65     66     68 1
    66     66     69 1
    67     69     70 1
    68     70     71 1
    69     71     72 1
    70     71     73 1
    71     72     76 1
    72     73     74 1
    73     73     75 1
    74     75     76 1
    75     76     77 1
    76     77     78 ar
    77     77     87 ar
    78     78     79 ar
    79     79     80 ar
    80     80     81 1
    81     80     87 ar
    82     81     82 2
    83     81     83 am
    84     83     84 1
    85     84     85 2
    86     84     86 2
    87     86     87 1
    88     99    100 1
    89     99    101 1
    90     99    102 1
    91    102    103 1
    92    103    104 1
    93    104    105 1
    94    104    106 1
    95    105    109 1
    96    106    107 1
    97    106    108 1
    98    108    109 1
    99    109    110 1
   100    110    111 ar
   101    110    119 ar
   102    111    112 ar
   103    112    113 ar
   104    113    114 ar
   105    113    119 ar
   106    114    115 1
   107    114    116 ar
   108    116    117 ar
   109    117    118 ar
   110    118    119 ar
   111    131    132 1
   112    131    133 1
   113    131    134 1
   114    134    135 1
   115    135    136 1
   116    136    137 1
   117    136    138 1
   118    137    141 1
   119    138    139 1
   120    138    140 1
   121    140    141 1
   122    141    142 1
   123    142    143 ar
   124    142    151 ar
   125    143    144 ar
   126    144    145 ar
   127    145    146 ar
   128    145    151 ar
   129    146    147 1
   130    146    148 ar
   131    148    149 ar
   132    149    150 ar
   133    150    151 ar
   134    163    164 1
   135    163    165 1
   136    163    166 1
   137    166    167 1
   138    167    168 1
   139    168    169 1
   140    168    170 1
   141    169    173 1
   142    170    171 1
   143    170    172 1
   144    172    173 1
   145    173    174 1
   146    174    175 am
   147    174    182 1
   148    175    176 2
   149    175    177 am
   150    177    178 am
   151    178    179 2
   152    178    180 1
   153    180    181 1
   154    180    182 2
   155    195    196 1
   156    195    197 1
   157    195    198 1
   158    198    199 1
   159    199    200 1
   160    200    201 1
   161    200    202 1
   162    201    205 1
   163    202    203 1
   164    202    204 1
   165    204    205 1
   166    205    206 1
   167    206    207 am
   168    206    214 1
   169    207    208 2
   170    207    209 am
   171    209    210 am
   172    210    211 2
   173    210    212 1
   174    212    213 1
   175    212    214 2
   176    227    228 1
   177    227    229 1
   178    227    230 1
   179    230    231 1
   180    231    232 1
   181    232    233 1
   182    232    234 1
   183    233    237 1
   184    234    235 1
   185    234    236 1
   186    236    237 1
   187    237    238 1
   188    238    239 am
   189    238    245 1
   190    239    240 2
   191    239    241 1
   192    241    242 2
   193    242    243 2
   194    242    244 2
   195    244    245 2
   196    257    258 1
   197    257    259 1
   198    257    260 1
   199    260    261 1
   200    261    262 1
   201    262    263 1
   202    262    264 1
   203    263    267 1
   204    264    265 1
   205    264    266 1
   206    266    267 1
   207    267    268 1
   208    268    269 ar
   209    268    277 ar
   210    269    270 ar
   211    270    271 ar
   212    271    272 ar
   213    271    277 ar
   214    272    273 1
   215    272    274 ar
   216    274    275 ar
   217    275    276 ar
   218    276    277 ar
   219    289    290 1
   220    289    291 1
   221    289    292 1
   222    292    293 1
   223    293    294 1
   224    294    295 1
   225    294    296 1
   226    295    299 1
   227    296    297 1
   228    296    298 1
   229    298    299 1
   230    299    300 1
   231    300    301 am
   232    300    307 1
   233    301    302 2
   234    301    303 1
   235    303    304 2
   236    304    305 2
   237    304    306 2
   238    306    307 2
   239    319    320 1
   240    319    321 1
   241    319    322 1
   242    322    323 1
   243    323    324 1
   244    324    325 1
   245    324    326 1
   246    325    329 1
   247    326    327 1
   248    326    328 1
   249    328    329 1
   250    329    330 1
   251    330    331 ar
   252    330    340 ar
   253    331    332 ar
   254    332    333 ar
   255    333    334 1
   256    333    340 ar
   257    334    335 2
   258    334    336 am
   259    336    337 1
   260    337    338 2
   261    337    339 2
   262    339    340 1
   263    352    353 1
   264    352    354 1
   265    352    355 1
   266    355    356 1
   267    356    357 1
   268    357    358 1
   269    357    359 1
   270    358    362 1
   271    359    360 1
   272    359    361 1
   273    361    362 1
   274    362    363 1
   275    363    364 am
   276    363    371 1
   277    364    365 2
   278    364    366 am
   279    366    367 am
   280    367    368 2
   281    367    369 1
   282    369    370 1
   283    369    371 2
   284    384    385 1
   285    384    386 1
   286    384    387 1
   287    387    388 1
   288    388    389 1
   289    389    390 1
   290    389    391 1
   291    390    394 1
   292    391    392 1
   293    391    393 1
   294    393    394 1
   295    394    395 1
   296    395    396 ar
   297    395    405 ar
   298    396    397 ar
   299    397    398 ar
   300    398    399 1
   301    398    405 ar
   302    399    400 2
   303    399    401 am
   304    401    402 1
   305    402    403 2
   306    402    404 2
   307    404    405 1
   308    417    418 1
   309    417    419 1
   310    417    420 1
   311    420    421 1
   312    421    422 1
   313    422    423 1
   314    422    424 1
   315    423    427 1
   316    424    425 1
   317    424    426 1
   318    426    427 1
   319    427    428 1
   320    428    429 ar
   321    428    437 ar
   322    429    430 ar
   323    430    431 ar
   324    431    432 ar
   325    431    437 ar
   326    432    433 1
   327    432    434 ar
   328    434    435 ar
   329    435    436 ar
   330    436    437 ar
   331    449    450 1
   332    449    451 1
   333    449    452 1
   334    452    453 1
   335    453    454 1
   336    454    455 1
   337    454    456 1
   338    455    459 1
   339    456    457 1
   340    456    458 1
   341    458    459 1
   342    459    460 1
   343    460    461 ar
   344    460    469 ar
   345    461    462 ar
   346    462    463 ar
   347    463    464 ar
   348    463    469 ar
   349    464    465 1
   350    464    466 ar
   351    466    467 ar
   352    467    468 ar
   353    468    469 ar
   354    481    482 1
   355    481    483 1
   356    481    484 1
   357    484    485 1
   358    485    486 1
   359    486    487 1
   360    486    488 1
   361    487    491 1
   362    488    489 1
   363    488    490 1
   364    490    491 1
   365    491    492 1
   366    492    493 am
   367    492    500 1
   368    493    494 2
   369    493    495 am
   370    495    496 am
   371    496    497 2
   372    496    498 1
   373    498    499 1
   374    498    500 2
   375    513    514 1
   376    513    515 1
   377    513    516 1
   378    516    517 1
   379    517    518 1
   380    518    519 1
   381    518    520 1
   382    519    523 1
   383    520    521 1
   384    520    522 1
   385    522    523 1
   386    523    524 1
   387    524    525 am
   388    524    532 1
   389    525    526 2
   390    525    527 am
   391    527    528 am
   392    528    529 2
   393    528    530 1
   394    530    531 1
   395    530    532 2
   396    545    546 1
   397    545    547 1
   398    545    548 1
   399    548    549 1
   400    549    550 1
   401    550    551 1
   402    550    552 1
   403    551    555 1
   404    552    553 1
   405    552    554 1
   406    554    555 1
   407    555    556 1
   408    556    557 am
   409    556    563 1
   410    557    558 2
   411    557    559 1
   412    559    560 2
   413    560    561 2
   414    560    562 2
   415    562    563 2
   416    575    576 1
   417    575    577 1
   418    575    578 1
   419    578    579 1
   420    579    580 1
   421    580    581 1
   422    580    582 1
   423    581    585 1
   424    582    583 1
   425    582    584 1
   426    584    585 1
   427    585    586 1
   428    586    587 ar
   429    586    595 ar
   430    587    588 ar
   431    588    589 ar
   432    589    590 ar
   433    589    595 ar
   434    590    591 1
   435    590    592 ar
   436    592    593 ar
   437    593    594 ar
   438    594    595 ar
   439    607    608 1
   440    607    609 1
   441    607    610 1
   442    610    611 1
   443    611    612 1
   444    612    613 1
   445    612    614 1
   446    613    617 1
   447    614    615 1
   448    614    616 1
   449    616    617 1
   450    617    618 1
   451    618    619 am
   452    618    625 1
   453    619    620 2
   454    619    621 1
   455    621    622 2
   456    622    623 2
   457    622    624 2
   458    624    625 2
   459     23      5 1
   460     24      5 1
   461     25      6 1
   462     26      8 1
   463     27     10 1
   464     28     10 1
   465     29     11 1
   466     30     13 1
   467     31     18 1
   468     54     38 1
   469     55     38 1
   470     56     39 1
   471     57     41 1
   472     58     43 1
   473     59     43 1
   474     60     44 1
   475     61     48 1
   476     62     53 1
   477     88     70 1
   478     89     70 1
   479     90     71 1
   480     91     73 1
   481     92     75 1
   482     93     75 1
   483     94     76 1
   484     95     78 1
   485     96     83 1
   486    120    103 1
   487    121    103 1
   488    122    104 1
   489    123    106 1
   490    124    108 1
   491    125    108 1
   492    126    109 1
   493    127    111 1
   494    128    117 1
   495    152    135 1
   496    153    135 1
   497    154    136 1
   498    155    138 1
   499    156    140 1
   500    157    140 1
   501    158    141 1
   502    159    143 1
   503    160    149 1
   504    183    167 1
   505    184    167 1
   506    185    168 1
   507    186    170 1
   508    187    172 1
   509    188    172 1
   510    189    173 1
   511    190    177 1
   512    191    182 1
   513    215    199 1
   514    216    199 1
   515    217    200 1
   516    218    202 1
   517    219    204 1
   518    220    204 1
   519    221    205 1
   520    222    209 1
   521    223    214 1
   522    246    231 1
   523    247    231 1
   524    248    232 1
   525    249    234 1
   526    250    236 1
   527    251    236 1
   528    252    237 1
   529    253    244 1
   530    254    245 1
   531    278    261 1
   532    279    261 1
   533    280    262 1
   534    281    264 1
   535    282    266 1
   536    283    266 1
   537    284    267 1
   538    285    269 1
   539    286    275 1
   540    308    293 1
   541    309    293 1
   542    310    294 1
   543    311    296 1
   544    312    298 1
   545    313    298 1
   546    314    299 1
   547    315    306 1
   548    316    307 1
   549    341    323 1
   550    342    323 1
   551    343    324 1
   552    344    326 1
   553    345    328 1
   554    346    328 1
   555    347    329 1
   556    348    331 1
   557    349    336 1
   558    372    356 1
   559    373    356 1
   560    374    357 1
   561    375    359 1
   562    376    361 1
   563    377    361 1
   564    378    362 1
   565    379    366 1
   566    380    371 1
   567    406    388 1
   568    407    388 1
   569    408    389 1
   570    409    391 1
   571    410    393 1
   572    411    393 1
   573    412    394 1
   574    413    396 1
   575    414    401 1
   576    438    421 1
   577    439    421 1
   578    440    422 1
   579    441    424 1
   580    442    426 1
   581    443    426 1
   582    444    427 1
   583    445    429 1
   584    446    435 1
   585    470    453 1
   586    471    453 1
   587    472    454 1
   588    473    456 1
   589    474    458 1
   590    475    458 1
   591    476    459 1
   592    477    461 1
   593    478    467 1
   594    501    485 1
   595    502    485 1
   596    503    486 1
   597    504    488 1
   598    505    490 1
   599    506    490 1
   600    507    491 1
   601    508    495 1
   602    509    500 1
   603    533    517 1
   604    534    517 1
   605    535    518 1
   606    536    520 1
   607    537    522 1
   608    538    522 1
   609    539    523 1
   610    540    527 1
   611    541    532 1
   612    564    549 1
   613    565    549 1
   614    566    550 1
   615    567    552 1
   616    568    554 1
   617    569    554 1
   618    570    555 1
   619    571    562 1
   620    572    563 1
   621    596    579 1
   622    597    579 1
   623    598    580 1
   624    599    582 1
   625    600    584 1
   626    601    584 1
   627    602    585 1
   628    603    587 1
   629    604    593 1
   630    626    611 1
   631    627    611 1
   632    628    612 1
   633    629    614 1
   634    630    616 1
   635    631    616 1
   636    632    617 1
   637    633    624 1
   638    634    625 1
   639     32     20 1
   640     33     20 1
   641     97     85 1
   642     98     85 1
   643    255    243 1
   644    256    243 1
   645    317    305 1
   646    318    305 1
   647    350    338 1
   648    351    338 1
   649    415    403 1
   650    416    403 1
   651    573    561 1
   652    574    561 1
   653    635    623 1
   654    636    623 1
   655    129    115 1
   656    130    115 1
   657    161    147 1
   658    162    147 1
   659    287    273 1
   660    288    273 1
   661    447    433 1
   662    448    433 1
   663    479    465 1
   664    480    465 1
   665    605    591 1
   666    606    591 1
   667     63     52 1
   668     64     52 1
   669     65     52 1
   670    192    181 1
   671    193    181 1
   672    194    181 1
   673    224    213 1
   674    225    213 1
   675    226    213 1
   676    381    370 1
   677    382    370 1
   678    383    370 1
   679    510    499 1
   680    511    499 1
   681    512    499 1
   682    542    531 1
   683    543    531 1
   684    544    531 1
   685    297    637 1
   686    319   1251 1
   687    645    670 1
   688    678    702 1
   689    710    735 1
   690    743    767 1
   691    775    799 1
   692    807    831 1
   693    839    863 1
   694    871    893 1
   695    901    925 1
   696    963    988 1
   697    996   1020 1
   698   1028   1053 1
   699   1061   1085 1
   700   1093   1117 1
   701   1125   1149 1
   702   1157   1181 1
   703   1189   1211 1
   704   1219   1243 1
   705    637    638 1
   706    637    639 1
   707    637    640 1
   708    640    641 1
   709    641    642 1
   710    642    643 1
   711    642    644 1
   712    643    647 1
   713    644    645 1
   714    644    646 1
   715    646    647 1
   716    647    648 1
   717    648    649 ar
   718    648    658 ar
   719    649    650 ar
   720    650    651 ar
   721    651    652 1
   722    651    658 ar
   723    652    653 2
   724    652    654 am
   725    654    655 1
   726    655    656 2
   727    655    657 2
   728    657    658 1
   729    670    671 1
   730    670    672 1
   731    670    673 1
   732    673    674 1
   733    674    675 1
   734    675    676 1
   735    675    677 1
   736    676    680 1
   737    677    678 1
   738    677    679 1
   739    679    680 1
   740    680    681 1
   741    681    682 am
   742    681    689 1
   743    682    683 2
   744    682    684 am
   745    684    685 am
   746    685    686 2
   747    685    687 1
   748    687    688 1
   749    687    689 2
   750    702    703 1
   751    702    704 1
   752    702    705 1
   753    705    706 1
   754    706    707 1
   755    707    708 1
   756    707    709 1
   757    708    712 1
   758    709    710 1
   759    709    711 1
   760    711    712 1
   761    712    713 1
   762    713    714 ar
   763    713    723 ar
   764    714    715 ar
   765    715    716 ar
   766    716    717 1
   767    716    723 ar
   768    717    718 2
   769    717    719 am
   770    719    720 1
   771    720    721 2
   772    720    722 2
   773    722    723 1
   774    735    736 1
   775    735    737 1
   776    735    738 1
   777    738    739 1
   778    739    740 1
   779    740    741 1
   780    740    742 1
   781    741    745 1
   782    742    743 1
   783    742    744 1
   784    744    745 1
   785    745    746 1
   786    746    747 ar
   787    746    755 ar
   788    747    748 ar
   789    748    749 ar
   790    749    750 ar
   791    749    755 ar
   792    750    751 1
   793    750    752 ar
   794    752    753 ar
   795    753    754 ar
   796    754    755 ar
   797    767    768 1
   798    767    769 1
   799    767    770 1
   800    770    771 1
   801    771    772 1
   802    772    773 1
   803    772    774 1
   804    773    777 1
   805    774    775 1
   806    774    776 1
   807    776    777 1
   808    777    778 1
   809    778    779 ar
   810    778    787 ar
   811    779    780 ar
   812    780    781 ar
   813    781    782 ar
   814    781    787 ar
   815    782    783 1
   816    782    784 ar
   817    784    785 ar
   818    785    786 ar
   819    786    787 ar
   820    799    800 1
   821    799    801 1
   822    799    802 1
   823    802    803 1
   824    803    804 1
   825    804    805 1
   826    804    806 1
   827    805    809 1
   828    806    807 1
   829    806    808 1
   830    808    809 1
   831    809    810 1
   832    810    811 am
   833    810    818 1
   834    811    812 2
   835    811    813 am
   836    813    814 am
   837    814    815 2
   838    814    816 1
   839    816    817 1
   840    816    818 2
   841    831    832 1
   842    831    833 1
   843    831    834 1
   844    834    835 1
   845    835    836 1
   846    836    837 1
   847    836    838 1
   848    837    841 1
   849    838    839 1
   850    838    840 1
   851    840    841 1
   852    841    842 1
   853    842    843 am
   854    842    850 1
   855    843    844 2
   856    843    845 am
   857    845    846 am
   858    846    847 2
   859    846    848 1
   860    848    849 1
   861    848    850 2
   862    863    864 1
   863    863    865 1
   864    863    866 1
   865    866    867 1
   866    867    868 1
   867    868    869 1
   868    868    870 1
   869    869    873 1
   870    870    871 1
   871    870    872 1
   872    872    873 1
   873    873    874 1
   874    874    875 am
   875    874    881 1
   876    875    876 2
   877    875    877 1
   878    877    878 2
   879    878    879 2
   880    878    880 2
   881    880    881 2
   882    893    894 1
   883    893    895 1
   884    893    896 1
   885    896    897 1
   886    897    898 1
   887    898    899 1
   888    898    900 1
   889    899    903 1
   890    900    901 1
   891    900    902 1
   892    902    903 1
   893    903    904 1
   894    904    905 ar
   895    904    913 ar
   896    905    906 ar
   897    906    907 ar
   898    907    908 ar
   899    907    913 ar
   900    908    909 1
   901    908    910 ar
   902    910    911 ar
   903    911    912 ar
   904    912    913 ar
   905    925    926 1
   906    925    927 1
   907    925    928 1
   908    928    929 1
   909    929    930 1
   910    930    931 1
   911    930    932 1
   912    931    935 1
   913    932    933 1
   914    932    934 1
   915    934    935 1
   916    935    936 1
   917    936    937 am
   918    936    943 1
   919    937    938 2
   920    937    939 1
   921    939    940 2
   922    940    941 2
   923    940    942 2
   924    942    943 2
   925    955    956 1
   926    955    957 1
   927    955    958 1
   928    958    959 1
   929    959    960 1
   930    960    961 1
   931    960    962 1
   932    961    965 1
   933    962    963 1
   934    962    964 1
   935    964    965 1
   936    965    966 1
   937    966    967 ar
   938    966    976 ar
   939    967    968 ar
   940    968    969 ar
   941    969    970 1
   942    969    976 ar
   943    970    971 2
   944    970    972 am
   945    972    973 1
   946    973    974 2
   947    973    975 2
   948    975    976 1
   949    988    989 1
   950    988    990 1
   951    988    991 1
   952    991    992 1
   953    992    993 1
   954    993    994 1
   955    993    995 1
   956    994    998 1
   957    995    996 1
   958    995    997 1
   959    997    998 1
   960    998    999 1
   961    999   1000 am
   962    999   1007 1
   963   1000   1001 2
   964   1000   1002 am
   965   1002   1003 am
   966   1003   1004 2
   967   1003   1005 1
   968   1005   1006 1
   969   1005   1007 2
   970   1020   1021 1
   971   1020   1022 1
   972   1020   1023 1
   973   1023   1024 1
   974   1024   1025 1
   975   1025   1026 1
   976   1025   1027 1
   977   1026   1030 1
   978   1027   1028 1
   979   1027   1029 1
   980   1029   1030 1
   981   1030   1031 1
   982   1031   1032 ar
   983   1031   1041 ar
   984   1032   1033 ar
   985   1033   1034 ar
   986   1034   1035 1
   987   1034   1041 ar
   988   1035   1036 2
   989   1035   1037 am
   990   1037   1038 1
   991   1038   1039 2
   992   1038   1040 2
   993   1040   1041 1
   994   1053   1054 1
   995   1053   1055 1
   996   1053   1056 1
   997   1056   1057 1
   998   1057   1058 1
   999   1058   1059 1
  1000   1058   1060 1
  1001   1059   1063 1
  1002   1060   1061 1
  1003   1060   1062 1
  1004   1062   1063 1
  1005   1063   1064 1
  1006   1064   1065 ar
  1007   1064   1073 ar
  1008   1065   1066 ar
  1009   1066   1067 ar
  1010   1067   1068 ar
  1011   1067   1073 ar
  1012   1068   1069 1
  1013   1068   1070 ar
  1014   1070   1071 ar
  1015   1071   1072 ar
  1016   1072   1073 ar
  1017   1085   1086 1
  1018   1085   1087 1
  1019   1085   1088 1
  1020   1088   1089 1
  1021   1089   1090 1
  1022   1090   1091 1
  1023   1090   1092 1
  1024   1091   1095 1
  1025   1092   1093 1
  1026   1092   1094 1
  1027   1094   1095 1
  1028   1095   1096 1
  1029   1096   1097 ar
  1030   1096   1105 ar
  1031   1097   1098 ar
  1032   1098   1099 ar
  1033   1099   1100 ar
  1034   1099   1105 ar
  1035   1100   1101 1
  1036   1100   1102 ar
  1037   1102   1103 ar
  1038   1103   1104 ar
  1039   1104   1105 ar
  1040   1117   1118 1
  1041   1117   1119 1
  1042   1117   1120 1
  1043   1120   1121 1
  1044   1121   1122 1
  1045   1122   1123 1
  1046   1122   1124 1
  1047   1123   1127 1
  1048   1124   1125 1
  1049   1124   1126 1
  1050   1126   1127 1
  1051   1127   1128 1
  1052   1128   1129 am
  1053   1128   1136 1
  1054   1129   1130 2
  1055   1129   1131 am
  1056   1131   1132 am
  1057   1132   1133 2
  1058   1132   1134 1
  1059   1134   1135 1
  1060   1134   1136 2
  1061   1149   1150 1
  1062   1149   1151 1
  1063   1149   1152 1
  1064   1152   1153 1
  1065   1153   1154 1
  1066   1154   1155 1
  1067   1154   1156 1
  1068   1155   1159 1
  1069   1156   1157 1
  1070   1156   1158 1
  1071   1158   1159 1
  1072   1159   1160 1
  1073   1160   1161 am
  1074   1160   1168 1
  1075   1161   1162 2
  1076   1161   1163 am
  1077   1163   1164 am
  1078   1164   1165 2
  1079   1164   1166 1
  1080   1166   1167 1
  1081   1166   1168 2
  1082   1181   1182 1
  1083   1181   1183 1
  1084   1181   1184 1
  1085   1184   1185 1
  1086   1185   1186 1
  1087   1186   1187 1
  1088   1186   1188 1
  1089   1187   1191 1
  1090   1188   1189 1
  1091   1188   1190 1
  1092   1190   1191 1
  1093   1191   1192 1
  1094   1192   1193 am
  1095   1192   1199 1
  1096   1193   1194 2
  1097   1193   1195 1
  1098   1195   1196 2
  1099   1196   1197 2
  1100   1196   1198 2
  1101   1198   1199 2
  1102   1211   1212 1
  1103   1211   1213 1
  1104   1211   1214 1
  1105   1214   1215 1
  1106   1215   1216 1
  1107   1216   1217 1
  1108   1216   1218 1
  1109   1217   1221 1
  1110   1218   1219 1
  1111   1218   1220 1
  1112   1220   1221 1
  1113   1221   1222 1
  1114   1222   1223 ar
  1115   1222   1231 ar
  1116   1223   1224 ar
  1117   1224   1225 ar
  1118   1225   1226 ar
  1119   1225   1231 ar
  1120   1226   1227 1
  1121   1226   1228 ar
  1122   1228   1229 ar
  1123   1229   1230 ar
  1124   1230   1231 ar
  1125   1243   1244 1
  1126   1243   1245 1
  1127   1243   1246 1
  1128   1246   1247 1
  1129   1247   1248 1
  1130   1248   1249 1
  1131   1248   1250 1
  1132   1249   1253 1
  1133   1250   1251 1
  1134   1250   1252 1
  1135   1252   1253 1
  1136   1253   1254 1
  1137   1254   1255 am
  1138   1254   1261 1
  1139   1255   1256 2
  1140   1255   1257 1
  1141   1257   1258 2
  1142   1258   1259 2
  1143   1258   1260 2
  1144   1260   1261 2
  1145    659    641 1
  1146    660    641 1
  1147    661    642 1
  1148    662    644 1
  1149    663    646 1
  1150    664    646 1
  1151    665    647 1
  1152    666    649 1
  1153    667    654 1
  1154    690    674 1
  1155    691    674 1
  1156    692    675 1
  1157    693    677 1
  1158    694    679 1
  1159    695    679 1
  1160    696    680 1
  1161    697    684 1
  1162    698    689 1
  1163    724    706 1
  1164    725    706 1
  1165    726    707 1
  1166    727    709 1
  1167    728    711 1
  1168    729    711 1
  1169    730    712 1
  1170    731    714 1
  1171    732    719 1
  1172    756    739 1
  1173    757    739 1
  1174    758    740 1
  1175    759    742 1
  1176    760    744 1
  1177    761    744 1
  1178    762    745 1
  1179    763    747 1
  1180    764    753 1
  1181    788    771 1
  1182    789    771 1
  1183    790    772 1
  1184    791    774 1
  1185    792    776 1
  1186    793    776 1
  1187    794    777 1
  1188    795    779 1
  1189    796    785 1
  1190    819    803 1
  1191    820    803 1
  1192    821    804 1
  1193    822    806 1
  1194    823    808 1
  1195    824    808 1
  1196    825    809 1
  1197    826    813 1
  1198    827    818 1
  1199    851    835 1
  1200    852    835 1
  1201    853    836 1
  1202    854    838 1
  1203    855    840 1
  1204    856    840 1
  1205    857    841 1
  1206    858    845 1
  1207    859    850 1
  1208    882    867 1
  1209    883    867 1
  1210    884    868 1
  1211    885    870 1
  1212    886    872 1
  1213    887    872 1
  1214    888    873 1
  1215    889    880 1
  1216    890    881 1
  1217    914    897 1
  1218    915    897 1
  1219    916    898 1
  1220    917    900 1
  1221    918    902 1
  1222    919    902 1
  1223    920    903 1
  1224    921    905 1
  1225    922    911 1
  1226    944    929 1
  1227    945    929 1
  1228    946    930 1
  1229    947    932 1
  1230    948    934 1
  1231    949    934 1
  1232    950    935 1
  1233    951    942 1
  1234    952    943 1
  1235    977    959 1
  1236    978    959 1
  1237    979    960 1
  1238    980    962 1
  1239    981    964 1
  1240    982    964 1
  1241    983    965 1
  1242    984    967 1
  1243    985    972 1
  1244   1008    992 1
  1245   1009    992 1
  1246   1010    993 1
  1247   1011    995 1
  1248   1012    997 1
  1249   1013    997 1
  1250   1014    998 1
  1251   1015   1002 1
  1252   1016   1007 1
  1253   1042   1024 1
  1254   1043   1024 1
  1255   1044   1025 1
  1256   1045   1027 1
  1257   1046   1029 1
  1258   1047   1029 1
  1259   1048   1030 1
  1260   1049   1032 1
  1261   1050   1037 1
  1262   1074   1057 1
  1263   1075   1057 1
  1264   1076   1058 1
  1265   1077   1060 1
  1266   1078   1062 1
  1267   1079   1062 1
  1268   1080   1063 1
  1269   1081   1065 1
  1270   1082   1071 1
  1271   1106   1089 1
  1272   1107   1089 1
  1273   1108   1090 1
  1274   1109   1092 1
  1275   1110   1094 1
  1276   1111   1094 1
  1277   1112   1095 1
  1278   1113   1097 1
  1279   1114   1103 1
  1280   1137   1121 1
  1281   1138   1121 1
  1282   1139   1122 1
  1283   1140   1124 1
  1284   1141   1126 1
  1285   1142   1126 1
  1286   1143   1127 1
  1287   1144   1131 1
  1288   1145   1136 1
  1289   1169   1153 1
  1290   1170   1153 1
  1291   1171   1154 1
  1292   1172   1156 1
  1293   1173   1158 1
  1294   1174   1158 1
  1295   1175   1159 1
  1296   1176   1163 1
  1297   1177   1168 1
  1298   1200   1185 1
  1299   1201   1185 1
  1300   1202   1186 1
  1301   1203   1188 1
  1302   1204   1190 1
  1303   1205   1190 1
  1304   1206   1191 1
  1305   1207   1198 1
  1306   1208   1199 1
  1307   1232   1215 1
  1308   1233   1215 1
  1309   1234   1216 1
  1310   1235   1218 1
  1311   1236   1220 1
  1312   1237   1220 1
  1313   1238   1221 1
  1314   1239   1223 1
  1315   1240   1229 1
  1316   1262   1247 1
  1317   1263   1247 1
  1318   1264   1248 1
  1319   1265   1250 1
  1320   1266   1252 1
  1321   1267   1252 1
  1322   1268   1253 1
  1323   1269   1260 1
  1324   1270   1261 1
  1325    668    656 1
  1326    669    656 1
  1327    733    721 1
  1328    734    721 1
  1329    891    879 1
  1330    892    879 1
  1331    953    941 1
  1332    954    941 1
  1333    986    974 1
  1334    987    974 1
  1335   1051   1039 1
  1336   1052   1039 1
  1337   1209   1197 1
  1338   1210   1197 1
  1339   1271   1259 1
  1340   1272   1259 1
  1341    765    751 1
  1342    766    751 1
  1343    797    783 1
  1344    798    783 1
  1345    923    909 1
  1346    924    909 1
  1347   1083   1069 1
  1348   1084   1069 1
  1349   1115   1101 1
  1350   1116   1101 1
  1351   1241   1227 1
  1352   1242   1227 1
  1353    699    688 1
  1354    700    688 1
  1355    701    688 1
  1356    828    817 1
  1357    829    817 1
  1358    830    817 1
  1359    860    849 1
  1360    861    849 1
  1361    862    849 1
  1362   1017   1006 1
  1363   1018   1006 1
  1364   1019   1006 1
  1365   1146   1135 1
  1366   1147   1135 1
  1367   1148   1135 1
  1368   1178   1167 1
  1369   1179   1167 1
  1370   1180   1167 1
  1371    933   1273 1
  1372    955   1887 1
  1373   1281   1306 1
  1374   1314   1338 1
  1375   1346   1371 1
  1376   1379   1403 1
  1377   1411   1435 1
  1378   1443   1467 1
  1379   1475   1499 1
  1380   1507   1529 1
  1381   1537   1561 1
  1382   1599   1624 1
  1383   1632   1656 1
  1384   1664   1689 1
  1385   1697   1721 1
  1386   1729   1753 1
  1387   1761   1785 1
  1388   1793   1817 1
  1389   1825   1847 1
  1390   1855   1879 1
  1391   1273   1274 1
  1392   1273   1275 1
  1393   1273   1276 1
  1394   1276   1277 1
  1395   1277   1278 1
  1396   1278   1279 1
  1397   1278   1280 1
  1398   1279   1283 1
  1399   1280   1281 1
  1400   1280   1282 1
  1401   1282   1283 1
  1402   1283   1284 1
  1403   1284   1285 ar
  1404   1284   1294 ar
  1405   1285   1286 ar
  1406   1286   1287 ar
  1407   1287   1288 1
  1408   1287   1294 ar
  1409   1288   1289 2
  1410   1288   1290 am
  1411   1290   1291 1
  1412   1291   1292 2
  1413   1291   1293 2
  1414   1293   1294 1
  1415   1306   1307 1
  1416   1306   1308 1
  1417   1306   1309 1
  1418   1309   1310 1
  1419   1310   1311 1
  1420   1311   1312 1
  1421   1311   1313 1
  1422   1312   1316 1
  1423   1313   1314 1
  1424   1313   1315 1
  1425   1315   1316 1
  1426   1316   1317 1
  1427   1317   1318 am
  1428   1317   1325 1
  1429   1318   1319 2
  1430   1318   1320 am
  1431   1320   1321 am
  1432   1321   1322 2
  1433   1321   1323 1
  1434   1323   1324 1
  1435   1323   1325 2
  1436   1338   1339 1
  1437   1338   1340 1
  1438   1338   1341 1
  1439   1341   1342 1
  1440   1342   1343 1
  1441   1343   1344 1
  1442   1343   1345 1
  1443   1344   1348 1
  1444   1345   1346 1
  1445   1345   1347 1
  1446   1347   1348 1
  1447   1348   1349 1
  1448   1349   1350 ar
  1449   1349   1359 ar
  1450   1350   1351 ar
  1451   1351   1352 ar
  1452   1352   1353 1
  1453   1352   1359 ar
  1454   1353   1354 2
  1455   1353   1355 am
  1456   1355   1356 1
  1457   1356   1357 2
  1458   1356   1358 2
  1459   1358   1359 1
  1460   1371   1372 1
  1461   1371   1373 1
  1462   1371   1374 1
  1463   1374   1375 1
  1464   1375   1376 1
  1465   1376   1377 1
  1466   1376   1378 1
  1467   1377   1381 1
  1468   1378   1379 1
  1469   1378   1380 1
  1470   1380   1381 1
  1471   1381   1382 1
  1472   1382   1383 ar
  1473   1382   1391 ar
  1474   1383   1384 ar
  1475   1384   1385 ar
  1476   1385   1386 ar
  1477   1385   1391 ar
  1478   1386   1387 1
  1479   1386   1388 ar
  1480   1388   1389 ar
  1481   1389   1390 ar
  1482   1390   1391 ar
  1483   1403   1404 1
  1484   1403   1405 1
  1485   1403   1406 1
  1486   1406   1407 1
  1487   1407   1408 1
  1488   1408   1409 1
  1489   1408   1410 1
  1490   1409   1413 1
  1491   1410   1411 1
  1492   1410   1412 1
  1493   1412   1413 1
  1494   1413   1414 1
  1495   1414   1415 ar
  1496   1414   1423 ar
  1497   1415   1416 ar
  1498   1416   1417 ar
  1499   1417   1418 ar
  1500   1417   1423 ar
  1501   1418   1419 1
  1502   1418   1420 ar
  1503   1420   1421 ar
  1504   1421   1422 ar
  1505   1422   1423 ar
  1506   1435   1436 1
  1507   1435   1437 1
  1508   1435   1438 1
  1509   1438   1439 1
  1510   1439   1440 1
  1511   1440   1441 1
  1512   1440   1442 1
  1513   1441   1445 1
  1514   1442   1443 1
  1515   1442   1444 1
  1516   1444   1445 1
  1517   1445   1446 1
  1518   1446   1447 am
  1519   1446   1454 1
  1520   1447   1448 2
  1521   1447   1449 am
  1522   1449   1450 am
  1523   1450   1451 2
  1524   1450   1452 1
  1525   1452   1453 1
  1526   1452   1454 2
  1527   1467   1468 1
  1528   1467   1469 1
  1529   1467   1470 1
  1530   1470   1471 1
  1531   1471   1472 1
  1532   1472   1473 1
  1533   1472   1474 1
  1534   1473   1477 1
  1535   1474   1475 1
  1536   1474   1476 1
  1537   1476   1477 1
  1538   1477   1478 1
  1539   1478   1479 am
  1540   1478   1486 1
  1541   1479   1480 2
  1542   1479   1481 am
  1543   1481   1482 am
  1544   1482   1483 2
  1545   1482   1484 1
  1546   1484   1485 1
  1547   1484   1486 2
  1548   1499   1500 1
  1549   1499   1501 1
  1550   1499   1502 1
  1551   1502   1503 1
  1552   1503   1504 1
  1553   1504   1505 1
  1554   1504   1506 1
  1555   1505   1509 1
  1556   1506   1507 1
  1557   1506   1508 1
  1558   1508   1509 1
  1559   1509   1510 1
  1560   1510   1511 am
  1561   1510   1517 1
  1562   1511   1512 2
  1563   1511   1513 1
  1564   1513   1514 2
  1565   1514   1515 2
  1566   1514   1516 2
  1567   1516   1517 2
  1568   1529   1530 1
  1569   1529   1531 1
  1570   1529   1532 1
  1571   1532   1533 1
  1572   1533   1534 1
  1573   1534   1535 1
  1574   1534   1536 1
  1575   1535   1539 1
  1576   1536   1537 1
  1577   1536   1538 1
  1578   1538   1539 1
  1579   1539   1540 1
  1580   1540   1541 ar
  1581   1540   1549 ar
  1582   1541   1542 ar
  1583   1542   1543 ar
  1584   1543   1544 ar
  1585   1543   1549 ar
  1586   1544   1545 1
  1587   1544   1546 ar
  1588   1546   1547 ar
  1589   1547   1548 ar
  1590   1548   1549 ar
  1591   1561   1562 1
  1592   1561   1563 1
  1593   1561   1564 1
  1594   1564   1565 1
  1595   1565   1566 1
  1596   1566   1567 1
  1597   1566   1568 1
  1598   1567   1571 1
  1599   1568   1569 1
  1600   1568   1570 1
  1601   1570   1571 1
  1602   1571   1572 1
  1603   1572   1573 am
  1604   1572   1579 1
  1605   1573   1574 2
  1606   1573   1575 1
  1607   1575   1576 2
  1608   1576   1577 2
  1609   1576   1578 2
  1610   1578   1579 2
  1611   1591   1592 1
  1612   1591   1593 1
  1613   1591   1594 1
  1614   1594   1595 1
  1615   1595   1596 1
  1616   1596   1597 1
  1617   1596   1598 1
  1618   1597   1601 1
  1619   1598   1599 1
  1620   1598   1600 1
  1621   1600   1601 1
  1622   1601   1602 1
  1623   1602   1603 ar
  1624   1602   1612 ar
  1625   1603   1604 ar
  1626   1604   1605 ar
  1627   1605   1606 1
  1628   1605   1612 ar
  1629   1606   1607 2
  1630   1606   1608 am
  1631   1608   1609 1
  1632   1609   1610 2
  1633   1609   1611 2
  1634   1611   1612 1
  1635   1624   1625 1
  1636   1624   1626 1
  1637   1624   1627 1
  1638   1627   1628 1
  1639   1628   1629 1
  1640   1629   1630 1
  1641   1629   1631 1
  1642   1630   1634 1
  1643   1631   1632 1
  1644   1631   1633 1
  1645   1633   1634 1
  1646   1634   1635 1
  1647   1635   1636 am
  1648   1635   1643 1
  1649   1636   1637 2
  1650   1636   1638 am
  1651   1638   1639 am
  1652   1639   1640 2
  1653   1639   1641 1
  1654   1641   1642 1
  1655   1641   1643 2
  1656   1656   1657 1
  1657   1656   1658 1
  1658   1656   1659 1
  1659   1659   1660 1
  1660   1660   1661 1
  1661   1661   1662 1
  1662   1661   1663 1
  1663   1662   1666 1
  1664   1663   1664 1
  1665   1663   1665 1
  1666   1665   1666 1
  1667   1666   1667 1
  1668   1667   1668 ar
  1669   1667   1677 ar
  1670   1668   1669 ar
  1671   1669   1670 ar
  1672   1670   1671 1
  1673   1670   1677 ar
  1674   1671   1672 2
  1675   1671   1673 am
  1676   1673   1674 1
  1677   1674   1675 2
  1678   1674   1676 2
  1679   1676   1677 1
  1680   1689   1690 1
  1681   1689   1691 1
  1682   1689   1692 1
  1683   1692   1693 1
  1684   1693   1694 1
  1685   1694   1695 1
  1686   1694   1696 1
  1687   1695   1699 1
  1688   1696   1697 1
  1689   1696   1698 1
  1690   1698   1699 1
  1691   1699   1700 1
  1692   1700   1701 ar
  1693   1700   1709 ar
  1694   1701   1702 ar
  1695   1702   1703 ar
  1696   1703   1704 ar
  1697   1703   1709 ar
  1698   1704   1705 1
  1699   1704   1706 ar
  1700   1706   1707 ar
  1701   1707   1708 ar
  1702   1708   1709 ar
  1703   1721   1722 1
  1704   1721   1723 1
  1705   1721   1724 1
  1706   1724   1725 1
  1707   1725   1726 1
  1708   1726   1727 1
  1709   1726   1728 1
  1710   1727   1731 1
  1711   1728   1729 1
  1712   1728   1730 1
  1713   1730   1731 1
  1714   1731   1732 1
  1715   1732   1733 ar
  1716   1732   1741 ar
  1717   1733   1734 ar
  1718   1734   1735 ar
  1719   1735   1736 ar
  1720   1735   1741 ar
  1721   1736   1737 1
  1722   1736   1738 ar
  1723   1738   1739 ar
  1724   1739   1740 ar
  1725   1740   1741 ar
  1726   1753   1754 1
  1727   1753   1755 1
  1728   1753   1756 1
  1729   1756   1757 1
  1730   1757   1758 1
  1731   1758   1759 1
  1732   1758   1760 1
  1733   1759   1763 1
  1734   1760   1761 1
  1735   1760   1762 1
  1736   1762   1763 1
  1737   1763   1764 1
  1738   1764   1765 am
  1739   1764   1772 1
  1740   1765   1766 2
  1741   1765   1767 am
  1742   1767   1768 am
  1743   1768   1769 2
  1744   1768   1770 1
  1745   1770   1771 1
  1746   1770   1772 2
  1747   1785   1786 1
  1748   1785   1787 1
  1749   1785   1788 1
  1750   1788   1789 1
  1751   1789   1790 1
  1752   1790   1791 1
  1753   1790   1792 1
  1754   1791   1795 1
  1755   1792   1793 1
  1756   1792   1794 1
  1757   1794   1795 1
  1758   1795   1796 1
  1759   1796   1797 am
  1760   1796   1804 1
  1761   1797   1798 2
  1762   1797   1799 am
  1763   1799   1800 am
  1764   1800   1801 2
  1765   1800   1802 1
  1766   1802   1803 1
  1767   1802   1804 2
  1768   1817   1818 1
  1769   1817   1819 1
  1770   1817   1820 1
  1771   1820   1821 1
  1772   1821   1822 1
  1773   1822   1823 1
  1774   1822   1824 1
  1775   1823   1827 1
  1776   1824   1825 1
  1777   1824   1826 1
  1778   1826   1827 1
  1779   1827   1828 1
  1780   1828   1829 am
  1781   1828   1835 1
  1782   1829   1830 2
  1783   1829   1831 1
  1784   1831   1832 2
  1785   1832   1833 2
  1786   1832   1834 2
  1787   1834   1835 2
  1788   1847   1848 1
  1789   1847   1849 1
  1790   1847   1850 1
  1791   1850   1851 1
  1792   1851   1852 1
  1793   1852   1853 1
  1794   1852   1854 1
  1795   1853   1857 1
  1796   1854   1855 1
  1797   1854   1856 1
  1798   1856   1857 1
  1799   1857   1858 1
  1800   1858   1859 ar
  1801   1858   1867 ar
  1802   1859   1860 ar
  1803   1860   1861 ar
  1804   1861   1862 ar
  1805   1861   1867 ar
  1806   1862   1863 1
  1807   1862   1864 ar
  1808   1864   1865 ar
  1809   1865   1866 ar
  1810   1866   1867 ar
  1811   1879   1880 1
  1812   1879   1881 1
  1813   1879   1882 1
  1814   1882   1883 1
  1815   1883   1884 1
  1816   1884   1885 1
  1817   1884   1886 1
  1818   1885   1889 1
  1819   1886   1887 1
  1820   1886   1888 1
  1821   1888   1889 1
  1822   1889   1890 1
  1823   1890   1891 am
  1824   1890   1897 1
  1825   1891   1892 2
  1826   1891   1893 1
  1827   1893   1894 2
  1828   1894   1895 2
  1829   1894   1896 2
  1830   1896   1897 2
  1831   1295   1277 1
  1832   1296   1277 1
  1833   1297   1278 1
  1834   1298   1280 1
  1835   1299   1282 1
  1836   1300   1282 1
  1837   1301   1283 1
  1838   1302   1285 1
  1839   1303   1290 1
  1840   1326   1310 1
  1841   1327   1310 1
  1842   1328   1311 1
  1843   1329   1313 1
  1844   1330   1315 1
  1845   1331   1315 1
  1846   1332   1316 1
  1847   1333   1320 1
  1848   1334   1325 1
  1849   1360   1342 1
  1850   1361   1342 1
  1851   1362   1343 1
  1852   1363   1345 1
  1853   1364   1347 1
  1854   1365   1347 1
  1855   1366   1348 1
  1856   1367   1350 1
  1857   1368   1355 1
  1858   1392   1375 1
  1859   1393   1375 1
  1860   1394   1376 1
  1861   1395   1378 1
  1862   1396   1380 1
  1863   1397   1380 1
  1864   1398   1381 1
  1865   1399   1383 1
  1866   1400   1389 1
  1867   1424   1407 1
  1868   1425   1407 1
  1869   1426   1408 1
  1870   1427   1410 1
  1871   1428   1412 1
  1872   1429   1412 1
  1873   1430   1413 1
  1874   1431   1415 1
  1875   1432   1421 1
  1876   1455   1439 1
  1877   1456   1439 1
  1878   1457   1440 1
  1879   1458   1442 1
  1880   1459   1444 1
  1881   1460   1444 1
  1882   1461   1445 1
  1883   1462   1449 1
  1884   1463   1454 1
  1885   1487   1471 1
  1886   1488   1471 1
  1887   1489   1472 1
  1888   1490   1474 1
  1889   1491   1476 1
  1890   1492   1476 1
  1891   1493   1477 1
  1892   1494   1481 1
  1893   1495   1486 1
  1894   1518   1503 1
  1895   1519   1503 1
  1896   1520   1504 1
  1897   1521   1506 1
  1898   1522   1508 1
  1899   1523   1508 1
  1900   1524   1509 1
  1901   1525   1516 1
  1902   1526   1517 1
  1903   1550   1533 1
  1904   1551   1533 1
  1905   1552   1534 1
  1906   1553   1536 1
  1907   1554   1538 1
  1908   1555   1538 1
  1909   1556   1539 1
  1910   1557   1541 1
  1911   1558   1547 1
  1912   1580   1565 1
  1913   1581   1565 1
  1914   1582   1566 1
  1915   1583   1568 1
  1916   1584   1570 1
  1917   1585   1570 1
  1918   1586   1571 1
  1919   1587   1578 1
  1920   1588   1579 1
  1921   1613   1595 1
  1922   1614   1595 1
  1923   1615   1596 1
  1924   1616   1598 1
  1925   1617   1600 1
  1926   1618   1600 1
  1927   1619   1601 1
  1928   1620   1603 1
  1929   1621   1608 1
  1930   1644   1628 1
  1931   1645   1628 1
  1932   1646   1629 1
  1933   1647   1631 1
  1934   1648   1633 1
  1935   1649   1633 1
  1936   1650   1634 1
  1937   1651   1638 1
  1938   1652   1643 1
  1939   1678   1660 1
  1940   1679   1660 1
  1941   1680   1661 1
  1942   1681   1663 1
  1943   1682   1665 1
  1944   1683   1665 1
  1945   1684   1666 1
  1946   1685   1668 1
  1947   1686   1673 1
  1948   1710   1693 1
  1949   1711   1693 1
  1950   1712   1694 1
  1951   1713   1696 1
  1952   1714   1698 1
  1953   1715   1698 1
  1954   1716   1699 1
  1955   1717   1701 1
  1956   1718   1707 1
  1957   1742   1725 1
  1958   1743   1725 1
  1959   1744   1726 1
  1960   1745   1728 1
  1961   1746   1730 1
  1962   1747   1730 1
  1963   1748   1731 1
  1964   1749   1733 1
  1965   1750   1739 1
  1966   1773   1757 1
  1967   1774   1757 1
  1968   1775   1758 1
  1969   1776   1760 1
  1970   1777   1762 1
  1971   1778   1762 1
  1972   1779   1763 1
  1973   1780   1767 1
  1974   1781   1772 1
  1975   1805   1789 1
  1976   1806   1789 1
  1977   1807   1790 1
  1978   1808   1792 1
  1979   1809   1794 1
  1980   1810   1794 1
  1981   1811   1795 1
  1982   1812   1799 1
  1983   1813   1804 1
  1984   1836   1821 1
  1985   1837   1821 1
  1986   1838   1822 1
  1987   1839   1824 1
  1988   1840   1826 1
  1989   1841   1826 1
  1990   1842   1827 1
  1991   1843   1834 1
  1992   1844   1835 1
  1993   1868   1851 1
  1994   1869   1851 1
  1995   1870   1852 1
  1996   1871   1854 1
  1997   1872   1856 1
  1998   1873   1856 1
  1999   1874   1857 1
  2000   1875   1859 1
  2001   1876   1865 1
  2002   1898   1883 1
  2003   1899   1883 1
  2004   1900   1884 1
  2005   1901   1886 1
  2006   1902   1888 1
  2007   1903   1888 1
  2008   1904   1889 1
  2009   1905   1896 1
  2010   1906   1897 1
  2011   1304   1292 1
  2012   1305   1292 1
  2013   1369   1357 1
  2014   1370   1357 1
  2015   1527   1515 1
  2016   1528   1515 1
  2017   1589   1577 1
  2018   1590   1577 1
  2019   1622   1610 1
  2020   1623   1610 1
  2021   1687   1675 1
  2022   1688   1675 1
  2023   1845   1833 1
  2024   1846   1833 1
  2025   1907   1895 1
  2026   1908   1895 1
  2027   1401   1387 1
  2028   1402   1387 1
  2029   1433   1419 1
  2030   1434   1419 1
  2031   1559   1545 1
  2032   1560   1545 1
  2033   1719   1705 1
  2034   1720   1705 1
  2035   1751   1737 1
  2036   1752   1737 1
  2037   1877   1863 1
  2038   1878   1863 1
  2039   1335   1324 1
  2040   1336   1324 1
  2041   1337   1324 1
  2042   1464   1453 1
  2043   1465   1453 1
  2044   1466   1453 1
  2045   1496   1485 1
  2046   1497   1485 1
  2047   1498   1485 1
  2048   1653   1642 1
  2049   1654   1642 1
  2050   1655   1642 1
  2051   1782   1771 1
  2052   1783   1771 1
  2053   1784   1771 1
  2054   1814   1803 1
  2055   1815   1803 1
  2056   1816   1803 1
  2057   1569   1909 1
  2058   1591   2141 1
  2059   1917   1942 1
  2060   1950   1974 1
  2061   1982   2007 1
  2062   2047   2071 1
  2063   2079   2101 1
  2064   2109   2133 1
  2065   1909   1910 1
  2066   1909   1911 1
  2067   1909   1912 1
  2068   1912   1913 1
  2069   1913   1914 1
  2070   1914   1915 1
  2071   1914   1916 1
  2072   1915   1919 1
  2073   1916   1917 1
  2074   1916   1918 1
  2075   1918   1919 1
  2076   1919   1920 1
  2077   1920   1921 ar
  2078   1920   1930 ar
  2079   1921   1922 ar
  2080   1922   1923 ar
  2081   1923   1924 1
  2082   1923   1930 ar
  2083   1924   1925 2
  2084   1924   1926 am
  2085   1926   1927 1
  2086   1927   1928 2
  2087   1927   1929 2
  2088   1929   1930 1
  2089   1942   1943 1
  2090   1942   1944 1
  2091   1942   1945 1
  2092   1945   1946 1
  2093   1946   1947 1
  2094   1947   1948 1
  2095   1947   1949 1
  2096   1948   1952 1
  2097   1949   1950 1
  2098   1949   1951 1
  2099   1951   1952 1
  2100   1952   1953 1
  2101   1953   1954 am
  2102   1953   1961 1
  2103   1954   1955 2
  2104   1954   1956 am
  2105   1956   1957 am
  2106   1957   1958 2
  2107   1957   1959 1
  2108   1959   1960 1
  2109   1959   1961 2
  2110   1974   1975 1
  2111   1974   1976 1
  2112   1974   1977 1
  2113   1977   1978 1
  2114   1978   1979 1
  2115   1979   1980 1
  2116   1979   1981 1
  2117   1980   1984 1
  2118   1981   1982 1
  2119   1981   1983 1
  2120   1983   1984 1
  2121   1984   1985 1
  2122   1985   1986 ar
  2123   1985   1995 ar
  2124   1986   1987 ar
  2125   1987   1988 ar
  2126   1988   1989 1
  2127   1988   1995 ar
  2128   1989   1990 2
  2129   1989   1991 am
  2130   1991   1992 1
  2131   1992   1993 2
  2132   1992   1994 2
  2133   1994   1995 1
  2134   2007   2008 1
  2135   2007   2009 1
  2136   2007   2010 1
  2137   2010   2011 1
  2138   2011   2012 1
  2139   2012   2013 1
  2140   2012   2014 1
  2141   2013   2017 1
  2142   2014   2015 1
  2143   2014   2016 1
  2144   2016   2017 1
  2145   2017   2018 1
  2146   2018   2019 ar
  2147   2018   2027 ar
  2148   2019   2020 ar
  2149   2020   2021 ar
  2150   2021   2022 ar
  2151   2021   2027 ar
  2152   2022   2023 1
  2153   2022   2024 ar
  2154   2024   2025 ar
  2155   2025   2026 ar
  2156   2026   2027 ar
  2157   2039   2040 1
  2158   2039   2041 1
  2159   2039   2042 1
  2160   2042   2043 1
  2161   2043   2044 1
  2162   2044   2045 1
  2163   2044   2046 1
  2164   2045   2049 1
  2165   2046   2047 1
  2166   2046   2048 1
  2167   2048   2049 1
  2168   2049   2050 1
  2169   2050   2051 am
  2170   2050   2058 1
  2171   2051   2052 2
  2172   2051   2053 am
  2173   2053   2054 am
  2174   2054   2055 2
  2175   2054   2056 1
  2176   2056   2057 1
  2177   2056   2058 2
  2178   2071   2072 1
  2179   2071   2073 1
  2180   2071   2074 1
  2181   2074   2075 1
  2182   2075   2076 1
  2183   2076   2077 1
  2184   2076   2078 1
  2185   2077   2081 1
  2186   2078   2079 1
  2187   2078   2080 1
  2188   2080   2081 1
  2189   2081   2082 1
  2190   2082   2083 am
  2191   2082   2089 1
  2192   2083   2084 2
  2193   2083   2085 1
  2194   2085   2086 2
  2195   2086   2087 2
  2196   2086   2088 2
  2197   2088   2089 2
  2198   2101   2102 1
  2199   2101   2103 1
  2200   2101   2104 1
  2201   2104   2105 1
  2202   2105   2106 1
  2203   2106   2107 1
  2204   2106   2108 1
  2205   2107   2111 1
  2206   2108   2109 1
  2207   2108   2110 1
  2208   2110   2111 1
  2209   2111   2112 1
  2210   2112   2113 ar
  2211   2112   2121 ar
  2212   2113   2114 ar
  2213   2114   2115 ar
  2214   2115   2116 ar
  2215   2115   2121 ar
  2216   2116   2117 1
  2217   2116   2118 ar
  2218   2118   2119 ar
  2219   2119   2120 ar
  2220   2120   2121 ar
  2221   2133   2134 1
  2222   2133   2135 1
  2223   2133   2136 1
  2224   2136   2137 1
  2225   2137   2138 1
  2226   2138   2139 1
  2227   2138   2140 1
  2228   2139   2143 1
  2229   2140   2141 1
  2230   2140   2142 1
  2231   2142   2143 1
  2232   2143   2144 1
  2233   2144   2145 am
  2234   2144   2151 1
  2235   2145   2146 2
  2236   2145   2147 1
  2237   2147   2148 2
  2238   2148   2149 2
  2239   2148   2150 2
  2240   2150   2151 2
  2241   1931   1913 1
  2242   1932   1913 1
  2243   1933   1914 1
  2244   1934   1916 1
  2245   1935   1918 1
  2246   1936   1918 1
  2247   1937   1919 1
  2248   1938   1921 1
  2249   1939   1926 1
  2250   1962   1946 1
  2251   1963   1946 1
  2252   1964   1947 1
  2253   1965   1949 1
  2254   1966   1951 1
  2255   1967   1951 1
  2256   1968   1952 1
  2257   1969   1956 1
  2258   1970   1961 1
  2259   1996   1978 1
  2260   1997   1978 1
  2261   1998   1979 1
  2262   1999   1981 1
  2263   2000   1983 1
  2264   2001   1983 1
  2265   2002   1984 1
  2266   2003   1986 1
  2267   2004   1991 1
  2268   2028   2011 1
  2269   2029   2011 1
  2270   2030   2012 1
  2271   2031   2014 1
  2272   2032   2016 1
  2273   2033   2016 1
  2274   2034   2017 1
  2275   2035   2019 1
  2276   2036   2025 1
  2277   2059   2043 1
  2278   2060   2043 1
  2279   2061   2044 1
  2280   2062   2046 1
  2281   2063   2048 1
  2282   2064   2048 1
  2283   2065   2049 1
  2284   2066   2053 1
  2285   2067   2058 1
  2286   2090   2075 1
  2287   2091   2075 1
  2288   2092   2076 1
  2289   2093   2078 1
  2290   2094   2080 1
  2291   2095   2080 1
  2292   2096   2081 1
  2293   2097   2088 1
  2294   2098   2089 1
  2295   2122   2105 1
  2296   2123   2105 1
  2297   2124   2106 1
  2298   2125   2108 1
  2299   2126   2110 1
  2300   2127   2110 1
  2301   2128   2111 1
  2302   2129   2113 1
  2303   2130   2119 1
  2304   2152   2137 1
  2305   2153   2137 1
  2306   2154   2138 1
  2307   2155   2140 1
  2308   2156   2142 1
  2309   2157   2142 1
  2310   2158   2143 1
  2311   2159   2150 1
  2312   2160   2151 1
  2313   1940   1928 1
  2314   1941   1928 1
  2315   2005   1993 1
  2316   2006   1993 1
  2317   2099   2087 1
  2318   2100   2087 1
  2319   2161   2149 1
  2320   2162   2149 1
  2321   2037   2023 1
  2322   2038   2023 1
  2323   2131   2117 1
  2324   2132   2117 1
  2325   1971   1960 1
  2326   1972   1960 1
  2327   1973   1960 1
  2328   2068   2057 1
  2329   2069   2057 1
  2330   2070   2057 1
@<TRIPOS>MOLECULE
dna-seg-16-bp33
2100 2263 1 0 0
BIOPOLYMER
NO_CHARGES


@<TRIPOS>ATOM
      1 P          8.0935     6.2845  1738.1493 P.3      535 DA      0.0000
      2 OP1        8.7682     7.4572  1737.4823 O.co2    535 DA      0.0000
      3 OP2        8.9725     5.4367  1738.9803 O.co2    535 DA      0.0000
      4 O5'        6.7106     6.8768  1738.6802 O.3      535 DA      0.0000
      5 C5'        5.7883     7.5875  1737.8559 C.3      535 DA      0.0000
      6 C4'        4.3872     7.3225  1738.3782 C.3      535 DA      0.0000
      7 O4'        4.1068     5.9515  1738.4064 O.3      535 DA      0.0000
      8 C3'        4.0326     7.8808  1739.7455 C.3      535 DA      0.0000
      9 O3'        2.9907     8.8534  1739.6677 O.3      535 DA      0.0000
     10 C2'        3.6999     6.6339  1740.5742 C.3      535 DA      0.0000
     11 C1'        3.2994     5.6140  1739.5804 C.3      535 DA      0.0000
     12 N9         3.5252     4.1821  1739.8485 N.ar     535 DA      0.0000
     13 C8         4.7001     3.4794  1739.9637 C.ar     535 DA      0.0000
     14 N7         4.5390     2.1884  1740.1329 N.ar     535 DA      0.0000
     15 C5         3.1587     2.0188  1740.0960 C.ar     535 DA      0.0000
     16 C6         2.3430     0.8578  1740.2164 C.ar     535 DA      0.0000
     17 N6         2.7861    -0.3784  1740.4080 N.pl3    535 DA      0.0000
     18 N1         0.9907     1.0706  1740.1182 N.ar     535 DA      0.0000
     19 C2         0.4971     2.3288  1739.9292 C.ar     535 DA      0.0000
     20 N3         1.1993     3.4510  1739.8213 N.ar     535 DA      0.0000
     21 C4         2.5255     3.2263  1739.9132 C.ar     535 DA      0.0000
     22 H5'        5.8702     7.2405  1736.8258 H        535 DA      0.0000
     23 H5''       6.0017     8.6555  1737.9018 H        535 DA      0.0000
     24 H4'        3.6951     7.7711  1737.6655 H        535 DA      0.0000
     25 H3'        4.9188     8.3536  1740.1687 H        535 DA      0.0000
     26 H2'        4.5737     6.3013  1741.1345 H        535 DA      0.0000
     27 H2''       2.8737     6.8427  1741.2538 H        535 DA      0.0000
     28 H1'        2.2477     5.7610  1739.3344 H        535 DA      0.0000
     29 H8         5.6717     3.9488  1739.9188 H        535 DA      0.0000
     30 H2        -0.5766     2.4217  1739.8600 H        535 DA      0.0000
     31 H61        3.7224    -0.5708  1740.7342 H        535 DA      0.0000
     32 H62        2.1658    -1.1533  1740.2212 H        535 DA      0.0000
     33 P          2.8445    10.1606  1740.6239 P.3      536 DT      0.0000
     34 OP1        2.4354    11.3939  1739.8266 O.co2    536 DT      0.0000
     35 OP2        4.0255    10.3287  1741.4445 O.co2    536 DT      0.0000
     36 O5'        1.4564     9.8197  1741.4376 O.3      536 DT      0.0000
     37 C5'        0.4757     9.2117  1740.4925 C.3      536 DT      0.0000
     38 C4'       -0.1569     8.0927  1741.2802 C.3      536 DT      0.0000
     39 O4'        0.6930     6.9842  1741.4722 O.3      536 DT      0.0000
     40 C3'       -0.5658     8.5369  1742.6968 C.3      536 DT      0.0000
     41 O3'       -1.9449     8.8566  1742.6985 O.3      536 DT      0.0000
     42 C2'       -0.1777     7.3643  1743.5940 C.3      536 DT      0.0000
     43 C1'        0.0696     6.2742  1742.6294 C.3      536 DT      0.0000
     44 N1         0.9564     5.1728  1742.9692 N.am     536 DT      0.0000
     45 C2         0.3741     3.9167  1743.1071 C.2      536 DT      0.0000
     46 O2        -0.8410     3.7960  1743.0191 O.2      536 DT      0.0000
     47 N3         1.1877     2.8540  1743.3611 N.am     536 DT      0.0000
     48 C4         2.5426     2.9745  1743.4813 C.2      536 DT      0.0000
     49 O4         3.2326     1.9363  1743.7365 O.2      536 DT      0.0000
     50 C5         3.1223     4.2746  1743.3097 C.2      536 DT      0.0000
     51 C7         4.6121     4.4584  1743.3972 C.3      536 DT      0.0000
     52 C6         2.3156     5.3189  1743.0539 C.2      536 DT      0.0000
     53 H5'       -0.2740     9.9432  1740.1908 H        536 DT      0.0000
     54 H5''       0.9901     8.8144  1739.6175 H        536 DT      0.0000
     55 H4'       -1.0491     7.7578  1740.7511 H        536 DT      0.0000
     56 H3'        0.0107     9.4172  1742.9811 H        536 DT      0.0000
     57 H2'        0.7211     7.5910  1744.1675 H        536 DT      0.0000
     58 H2''      -1.0003     7.1050  1744.2605 H        536 DT      0.0000
     59 H1'       -0.8894     5.8648  1742.3121 H        536 DT      0.0000
     60 H3         0.7717     1.9395  1743.4648 H        536 DT      0.0000
     61 H6         2.7500     6.2975  1742.9118 H        536 DT      0.0000
     62 H71        5.0851     3.4997  1743.6102 H        536 DT      0.0000
     63 H72        4.9864     4.8453  1742.4494 H        536 DT      0.0000
     64 H73        4.8449     5.1637  1744.1950 H        536 DT      0.0000
     65 P         -2.7873     9.5461  1743.8051 P.3      537 DT      0.0000
     66 OP1       -4.0559    10.1945  1743.1930 O.co2    537 DT      0.0000
     67 OP2       -1.9000    10.5575  1744.4350 O.co2    537 DT      0.0000
     68 O5'       -3.3592     8.3351  1744.6874 O.3      537 DT      0.0000
     69 C5'       -4.3563     7.5541  1743.9756 C.3      537 DT      0.0000
     70 C4'       -4.5017     6.2352  1744.6518 C.3      537 DT      0.0000
     71 O4'       -3.3198     5.4444  1744.6285 O.3      537 DT      0.0000
     72 C3'       -4.9482     6.3202  1746.1184 C.3      537 DT      0.0000
     73 O3'       -5.9456     5.3518  1746.3825 O.3      537 DT      0.0000
     74 C2'       -3.6416     5.9401  1746.8548 C.3      537 DT      0.0000
     75 C1'       -3.2302     4.7956  1745.9512 C.3      537 DT      0.0000
     76 N1        -1.8802     4.3542  1746.2489 N.am     537 DT      0.0000
     77 C2        -1.6268     2.9932  1746.3037 C.2      537 DT      0.0000
     78 O2        -2.5553     2.2059  1746.1153 O.2      537 DT      0.0000
     79 N3        -0.3505     2.5836  1746.5696 N.am     537 DT      0.0000
     80 C4         0.6660     3.4648  1746.7767 C.2      537 DT      0.0000
     81 O4         1.8251     3.0118  1747.0000 O.2      537 DT      0.0000
     82 C5         0.3947     4.8626  1746.7116 C.2      537 DT      0.0000
     83 C7         1.4628     5.8959  1746.9215 C.3      537 DT      0.0000
     84 C6        -0.8644     5.2473  1746.4505 C.2      537 DT      0.0000
     85 H5'       -5.3111     8.0798  1743.9881 H        537 DT      0.0000
     86 H5''      -4.0353     7.4033  1742.9449 H        537 DT      0.0000
     87 H4'       -5.2703     5.6808  1744.1133 H        537 DT      0.0000
     88 H3'       -5.2816     7.3242  1746.3809 H        537 DT      0.0000
     89 H2'       -2.9139     6.7516  1746.8535 H        537 DT      0.0000
     90 H2''      -3.8446     5.5919  1747.8675 H        537 DT      0.0000
     91 H1'       -3.9353     3.9679  1746.0268 H        537 DT      0.0000
     92 H3        -0.1550     1.5937  1746.6140 H        537 DT      0.0000
     93 H6        -1.0838     6.3034  1746.3974 H        537 DT      0.0000
     94 H71        2.4135     5.4013  1747.1204 H        537 DT      0.0000
     95 H72        1.5538     6.5110  1746.0262 H        537 DT      0.0000
     96 H73        1.1967     6.5264  1747.7699 H        537 DT      0.0000
     97 P         -7.3925     5.3498  1746.9904 P.3      538 DC      0.0000
     98 OP1       -8.4412     5.1053  1745.9225 O.co2    538 DC      0.0000
     99 OP2       -7.5084     6.6226  1747.7254 O.co2    538 DC      0.0000
    100 O5'       -7.2403     3.9517  1747.8164 O.3      538 DC      0.0000
    101 C5'       -6.7740     2.9963  1746.7942 C.3      538 DC      0.0000
    102 C4'       -6.5371     1.6866  1747.4907 C.3      538 DC      0.0000
    103 O4'       -5.1864     1.4465  1747.7376 O.3      538 DC      0.0000
    104 C3'       -7.3228     1.4890  1748.7822 C.3      538 DC      0.0000
    105 O3'       -8.1139     0.3106  1748.7025 O.3      538 DC      0.0000
    106 C2'       -6.2099     1.5447  1749.8309 C.3      538 DC      0.0000
    107 C1'       -5.0107     1.0351  1749.1345 C.3      538 DC      0.0000
    108 N1        -3.7281     1.6635  1749.4666 N.am     538 DC      0.0000
    109 C2        -2.6718     0.7919  1749.7224 C.2      538 DC      0.0000
    110 O2        -2.8351    -0.4321  1749.7269 O.2      538 DC      0.0000
    111 N3        -1.4461     1.3468  1749.9962 N.2      538 DC      0.0000
    112 C4        -1.2576     2.6976  1749.9863 C.2      538 DC      0.0000
    113 N4        -0.0350     3.1375  1750.2632 N.pl3    538 DC      0.0000
    114 C5        -2.3341     3.5684  1749.7083 C.2      538 DC      0.0000
    115 C6        -3.5322     3.0080  1749.4435 C.2      538 DC      0.0000
    116 H5'       -7.5325     2.8766  1746.0205 H        538 DC      0.0000
    117 H5''      -5.8448     3.3531  1746.3500 H        538 DC      0.0000
    118 H4'       -6.8692     0.9073  1746.8047 H        538 DC      0.0000
    119 H3'       -7.9825     2.3447  1748.9254 H        538 DC      0.0000
    120 H2'       -6.0516     2.5688  1750.1688 H        538 DC      0.0000
    121 H2''      -6.4562     0.9025  1750.6765 H        538 DC      0.0000
    122 H1'       -4.9451    -0.0499  1749.2155 H        538 DC      0.0000
    123 H5        -2.2034     4.6404  1749.7077 H        538 DC      0.0000
    124 H6        -4.3661     3.6513  1749.2045 H        538 DC      0.0000
    125 H41        0.7052     2.4800  1750.4624 H        538 DC      0.0000
    126 H42        0.1541     4.1296  1750.2745 H        538 DC      0.0000
    127 P         -9.3721    -0.0687  1749.6545 P.3      539 DA      0.0000
    128 OP1      -10.2618    -1.0060  1748.8608 O.co2    539 DA      0.0000
    129 OP2      -10.0712     1.1857  1750.0000 O.co2    539 DA      0.0000
    130 O5'       -8.6795    -0.8078  1750.9515 O.3      539 DA      0.0000
    131 C5'       -7.7751    -1.9160  1750.6563 C.3      539 DA      0.0000
    132 C4'       -7.1452    -2.4241  1751.9116 C.3      539 DA      0.0000
    133 O4'       -5.8138    -1.9597  1752.1537 O.3      539 DA      0.0000
    134 C3'       -7.8638    -2.0435  1753.2168 C.3      539 DA      0.0000
    135 O3'       -7.4431    -2.9409  1754.2467 O.3      539 DA      0.0000
    136 C2'       -7.2639    -0.6395  1753.4314 C.3      539 DA      0.0000
    137 C1'       -5.7979    -1.0463  1753.2481 C.3      539 DA      0.0000
    138 N9        -4.9777     0.1495  1753.1538 N.ar     539 DA      0.0000
    139 C8        -5.3314     1.4652  1753.0380 C.ar     539 DA      0.0000
    140 N7        -4.3204     2.3152  1753.0194 N.ar     539 DA      0.0000
    141 C5        -3.2107     1.4890  1753.1269 C.ar     539 DA      0.0000
    142 C6        -1.8216     1.7651  1753.1614 C.ar     539 DA      0.0000
    143 N6        -1.2958     2.9739  1753.0762 N.pl3    539 DA      0.0000
    144 N1        -0.9969     0.6849  1753.2940 N.ar     539 DA      0.0000
    145 C2        -1.4992    -0.5867  1753.3742 C.ar     539 DA      0.0000
    146 N3        -2.7862    -0.9246  1753.3443 N.ar     539 DA      0.0000
    147 C4        -3.5901     0.1599  1753.2213 C.ar     539 DA      0.0000
    148 H5'       -8.3373    -2.7222  1750.1851 H        539 DA      0.0000
    149 H5''      -6.9960    -1.5738  1749.9750 H        539 DA      0.0000
    150 H4'       -7.1138    -3.5120  1751.8527 H        539 DA      0.0000
    151 H3'       -8.9476    -2.0197  1753.1031 H        539 DA      0.0000
    152 H2'       -7.5966     0.0772  1752.6806 H        539 DA      0.0000
    153 H2''      -7.4531    -0.2754  1754.4413 H        539 DA      0.0000
    154 H1'       -5.4889    -1.5950  1754.1378 H        539 DA      0.0000
    155 H8        -6.3604     1.7856  1752.9670 H        539 DA      0.0000
    156 H2        -0.7841    -1.3902  1753.4706 H        539 DA      0.0000
    157 H61       -0.3786     3.3564  1753.2562 H        539 DA      0.0000
    158 H62       -1.9572     3.6692  1752.7614 H        539 DA      0.0000
    159 P         -8.0749    -4.4043  1754.3872 P.3      540 DC      0.0000
    160 OP1       -8.7434    -4.8776  1753.1421 O.co2    540 DC      0.0000
    161 OP2       -9.0325    -4.2280  1755.5301 O.co2    540 DC      0.0000
    162 O5'       -6.8122    -5.3208  1754.6704 O.3      540 DC      0.0000
    163 C5'       -5.9635    -5.7978  1753.5826 C.3      540 DC      0.0000
    164 C4'       -4.6094    -5.9361  1754.2876 C.3      540 DC      0.0000
    165 O4'       -4.1634    -4.6368  1754.5996 O.3      540 DC      0.0000
    166 C3'       -4.6743    -6.7171  1755.5975 C.3      540 DC      0.0000
    167 O3'       -3.7012    -7.7840  1755.6654 O.3      540 DC      0.0000
    168 C2'       -4.4767    -5.6450  1756.6797 C.3      540 DC      0.0000
    169 C1'       -3.6065    -4.6647  1756.0035 C.3      540 DC      0.0000
    170 N1        -3.6362    -3.2477  1756.3564 N.am     540 DC      0.0000
    171 C2        -2.4000    -2.6048  1756.3295 C.2      540 DC      0.0000
    172 O2        -1.3496    -3.1994  1756.1226 O.2      540 DC      0.0000
    173 N3        -2.3849    -1.2685  1756.5826 N.2      540 DC      0.0000
    174 C4        -3.5157    -0.5593  1756.8160 C.2      540 DC      0.0000
    175 N4        -3.3727     0.7444  1757.0469 N.pl3    540 DC      0.0000
    176 C5        -4.7727    -1.2243  1756.8225 C.2      540 DC      0.0000
    177 C6        -4.7797    -2.5429  1756.5731 C.2      540 DC      0.0000
    178 H5'       -6.3114    -6.7564  1753.1978 H        540 DC      0.0000
    179 H5''      -5.9086    -5.0583  1752.7836 H        540 DC      0.0000
    180 H4'       -3.8967    -6.4132  1753.6149 H        540 DC      0.0000
    181 H3'       -5.6717    -7.1439  1755.7034 H        540 DC      0.0000
    182 H2'       -5.4274    -5.1954  1756.9667 H        540 DC      0.0000
    183 H2''      -3.9743    -6.0671  1757.5500 H        540 DC      0.0000
    184 H1'       -2.5779    -5.0250  1755.9903 H        540 DC      0.0000
    185 H5        -5.6886    -0.6875  1757.0210 H        540 DC      0.0000
    186 H6        -5.7259    -3.0627  1756.5434 H        540 DC      0.0000
    187 H41       -2.4529     1.1613  1757.0358 H        540 DC      0.0000
    188 H42       -4.1842     1.3162  1757.2330 H        540 DC      0.0000
    189 P          4.8220     6.9853  1758.6249 P.3      540 DG      0.0000
    190 OP1        5.6097     8.2441  1758.8037 O.co2    540 DG      0.0000
    191 OP2        3.7588     7.0960  1757.5401 O.co2    540 DG      0.0000
    192 O5'        5.8545     5.7203  1758.4177 O.3      540 DG      0.0000
    193 C5'        6.0415     4.7642  1759.5135 C.3      540 DG      0.0000
    194 C4'        6.1700     3.3812  1758.8792 C.3      540 DG      0.0000
    195 O4'        4.9324     2.7304  1758.7834 O.3      540 DG      0.0000
    196 C3'        6.7634     3.3838  1757.4728 C.3      540 DG      0.0000
    197 O3'        7.6719     2.2905  1757.2059 O.3      540 DG      0.0000
    198 C2'        5.5181     3.3155  1756.5706 C.3      540 DG      0.0000
    199 C1'        4.6197     2.4080  1757.3944 C.3      540 DG      0.0000
    200 N9         3.1981     2.6792  1757.1211 N.ar     540 DG      0.0000
    201 C8         2.5854     3.8998  1756.9644 C.ar     540 DG      0.0000
    202 N7         1.2995     3.8243  1756.7460 N.ar     540 DG      0.0000
    203 C5         1.0408     2.4589  1756.7708 C.ar     540 DG      0.0000
    204 C6        -0.1687     1.7308  1756.6143 C.2      540 DG      0.0000
    205 O6        -1.2971     2.2038  1756.4175 O.2      540 DG      0.0000
    206 N1        -0.0233     0.3682  1756.7012 N.am     540 DG      0.0000
    207 C2         1.1742    -0.2276  1756.9219 C.2      540 DG      0.0000
    208 N2         1.1607    -1.5562  1756.9853 N.pl3    540 DG      0.0000
    209 N3         2.3405     0.4102  1757.0796 N.2      540 DG      0.0000
    210 C4         2.1971     1.7472  1756.9963 C.ar     540 DG      0.0000
    211 H5'        6.9462     5.0060  1760.0712 H        540 DG      0.0000
    212 H5''       5.1782     4.7885  1760.1784 H        540 DG      0.0000
    213 H4'        6.8178     2.7787  1759.5159 H        540 DG      0.0000
    214 H3'        7.2790     4.3290  1757.3024 H        540 DG      0.0000
    215 H2'        5.0716     4.2995  1756.4279 H        540 DG      0.0000
    216 H2''       5.7587     2.8562  1755.6118 H        540 DG      0.0000
    217 H1'        4.8501     1.3625  1757.1891 H        540 DG      0.0000
    218 H8         3.1193     4.8371  1757.0172 H        540 DG      0.0000
    219 H1        -0.8419    -0.2140  1756.5964 H        540 DG      0.0000
    220 H21        0.2921    -2.0585  1756.8702 H        540 DG      0.0000
    221 H22        2.0192    -2.0628  1757.1484 H        540 DG      0.0000
    222 P          7.7350     1.7976  1755.6824 P.3      539 DT      0.0000
    223 OP1        9.0613     1.2034  1755.2915 O.co2    539 DT      0.0000
    224 OP2        7.4947     3.0831  1754.9818 O.co2    539 DT      0.0000
    225 O5'        6.5790     0.6959  1755.5515 O.3      539 DT      0.0000
    226 C5'        6.9578    -0.6922  1755.8191 C.3      539 DT      0.0000
    227 C4'        6.0132    -1.6002  1755.0621 C.3      539 DT      0.0000
    228 O4'        4.6832    -1.1138  1755.0348 O.3      539 DT      0.0000
    229 C3'        6.4117    -1.7954  1753.6073 C.3      539 DT      0.0000
    230 O3'        6.1935    -3.1344  1753.1122 O.3      539 DT      0.0000
    231 C2'        5.5540    -0.7806  1752.8845 C.3      539 DT      0.0000
    232 C1'        4.2598    -0.9510  1753.6626 C.3      539 DT      0.0000
    233 N1         3.5061     0.3036  1753.5113 N.am     539 DT      0.0000
    234 C2         2.1225     0.2061  1753.6181 C.2      539 DT      0.0000
    235 O2         1.5888    -0.8817  1753.8078 O.2      539 DT      0.0000
    236 N3         1.4042     1.3628  1753.4979 N.am     539 DT      0.0000
    237 C4         2.0061     2.5659  1753.2803 C.2      539 DT      0.0000
    238 O4         1.2524     3.5902  1753.1828 O.2      539 DT      0.0000
    239 C5         3.4246     2.6341  1753.1739 C.2      539 DT      0.0000
    240 C7         4.0993     3.9561  1752.9450 C.3      539 DT      0.0000
    241 C6         4.1212     1.5011  1753.2957 C.2      539 DT      0.0000
    242 H5'        7.9810    -0.8652  1755.4854 H        539 DT      0.0000
    243 H5''       6.8819    -0.8933  1756.8877 H        539 DT      0.0000
    244 H4'        6.0111    -2.5749  1755.5500 H        539 DT      0.0000
    245 H3'        7.4622    -1.5325  1753.4833 H        539 DT      0.0000
    246 H2'        5.9539     0.2292  1752.9760 H        539 DT      0.0000
    247 H2''       5.4206    -1.0554  1751.8381 H        539 DT      0.0000
    248 H1'        3.6880    -1.8103  1753.3119 H        539 DT      0.0000
    249 H3         0.3977     1.3247  1753.5726 H        539 DT      0.0000
    250 H6         5.1981     1.5344  1753.2216 H        539 DT      0.0000
    251 H71        3.3467     4.7416  1752.8763 H        539 DT      0.0000
    252 H72        4.7718     4.1693  1753.7759 H        539 DT      0.0000
    253 H73        4.6696     3.9172  1752.0168 H        539 DT      0.0000
    254 P          7.5834    -3.5999  1752.3338 P.3      538 DG      0.0000
    255 OP1        8.5231    -4.3681  1753.2051 O.co2    538 DG      0.0000
    256 OP2        8.0676    -2.2567  1751.9283 O.co2    538 DG      0.0000
    257 O5'        6.9856    -4.6143  1751.2530 O.3      538 DG      0.0000
    258 C5'        6.6213    -5.9526  1751.6765 C.3      538 DG      0.0000
    259 C4'        5.1749    -6.1224  1751.2288 C.3      538 DG      0.0000
    260 O4'        4.4517    -4.9384  1751.4995 O.3      538 DG      0.0000
    261 C3'        5.0077    -6.4317  1749.7410 C.3      538 DG      0.0000
    262 O3'        4.2798    -7.6286  1749.5325 O.3      538 DG      0.0000
    263 C2'        4.3796    -5.1754  1749.1643 C.3      538 DG      0.0000
    264 C1'        3.6472    -4.5939  1750.3505 C.3      538 DG      0.0000
    265 N9         3.5223    -3.1390  1750.2269 N.ar     538 DG      0.0000
    266 C8         4.5142    -2.2131  1750.0680 C.ar     538 DG      0.0000
    267 N7         4.0772    -0.9798  1749.9900 N.ar     538 DG      0.0000
    268 C5         2.6975    -1.1007  1750.1275 C.ar     538 DG      0.0000
    269 C6         1.6583    -0.1333  1750.1370 C.2      538 DG      0.0000
    270 O6         1.7783     1.0837  1750.0379 O.2      538 DG      0.0000
    271 N1         0.4024    -0.6496  1750.2859 N.am     538 DG      0.0000
    272 C2         0.1787    -1.9986  1750.4188 C.2      538 DG      0.0000
    273 N2        -1.0956    -2.3670  1750.5545 N.pl3    538 DG      0.0000
    274 N3         1.1084    -2.9592  1750.4231 N.2      538 DG      0.0000
    275 C4         2.3476    -2.4325  1750.2724 C.ar     538 DG      0.0000
    276 H5'        7.2608    -6.6942  1751.1978 H        538 DG      0.0000
    277 H5''       6.6925    -6.0373  1752.7608 H        538 DG      0.0000
    278 H4'        4.7303    -6.9361  1751.8018 H        538 DG      0.0000
    279 H3'        5.9982    -6.5521  1749.3025 H        538 DG      0.0000
    280 H2'        5.1419    -4.4878  1748.7980 H        538 DG      0.0000
    281 H2''       3.6788    -5.4287  1748.3688 H        538 DG      0.0000
    282 H1'        2.6596    -5.0468  1750.4375 H        538 DG      0.0000
    283 H8         5.5610    -2.4731  1750.0119 H        538 DG      0.0000
    284 H1        -0.3868    -0.0195  1750.2988 H        538 DG      0.0000
    285 H21       -1.8257    -1.6691  1750.5554 H        538 DG      0.0000
    286 H22       -1.3307    -3.3439  1750.6563 H        538 DG      0.0000
    287 P          3.0229    -8.0372  1748.6662 P.3      537 DA      0.0000
    288 OP1        2.1392    -9.0178  1749.4476 O.co2    537 DA      0.0000
    289 OP2        3.5743    -8.6842  1747.4735 O.co2    537 DA      0.0000
    290 O5'        2.1317    -6.6846  1748.4914 O.3      537 DA      0.0000
    291 C5'        1.2388    -6.4686  1749.6479 C.3      537 DA      0.0000
    292 C4'       -0.1729    -6.5353  1749.1201 C.3      537 DA      0.0000
    293 O4'       -0.7245    -5.2623  1748.8978 O.3      537 DA      0.0000
    294 C3'       -0.2741    -7.2620  1747.7796 C.3      537 DA      0.0000
    295 O3'       -1.4000    -8.1034  1747.7044 O.3      537 DA      0.0000
    296 C2'       -0.1778    -6.1208  1746.7830 C.3      537 DA      0.0000
    297 C1'       -0.6314    -4.8839  1747.5069 C.3      537 DA      0.0000
    298 N9         0.2867    -3.7544  1747.2813 N.ar     537 DA      0.0000
    299 C8         1.6521    -3.7719  1747.0950 C.ar     537 DA      0.0000
    300 N7         2.1870    -2.5888  1746.8991 N.ar     537 DA      0.0000
    301 C5         1.0989    -1.7295  1746.9860 C.ar     537 DA      0.0000
    302 C6         1.0073    -0.3219  1746.8803 C.ar     537 DA      0.0000
    303 N6         2.0446     0.4686  1746.6678 N.pl3    537 DA      0.0000
    304 N1        -0.2410     0.2078  1747.0040 N.ar     537 DA      0.0000
    305 C2        -1.3305    -0.5847  1747.2285 C.ar     537 DA      0.0000
    306 N3        -1.3123    -1.9109  1747.3444 N.ar     537 DA      0.0000
    307 C4        -0.0663    -2.4258  1747.2083 C.ar     537 DA      0.0000
    308 H5'        1.3978    -7.2452  1750.3959 H        537 DA      0.0000
    309 H5''       1.4266    -5.4876  1750.0846 H        537 DA      0.0000
    310 H4'       -0.7918    -7.0602  1749.8478 H        537 DA      0.0000
    311 H3'        0.6155    -7.8817  1747.6665 H        537 DA      0.0000
    312 H2'       -0.8232    -6.3137  1745.9261 H        537 DA      0.0000
    313 H2''       0.8540    -6.0014  1746.4525 H        537 DA      0.0000
    314 H1'       -1.6234    -4.6093  1747.1487 H        537 DA      0.0000
    315 H8         2.2332    -4.6821  1747.1089 H        537 DA      0.0000
    316 H2        -2.2881    -0.0938  1747.3198 H        537 DA      0.0000
    317 H61        2.0435     1.4282  1746.9833 H        537 DA      0.0000
    318 H62        2.8527     0.1071  1746.1816 H        537 DA      0.0000
    319 P         -2.4001    -8.4090  1746.5198 P.3      536 DA      0.0000
    320 OP1       -3.6337    -9.2033  1747.0397 O.co2    536 DA      0.0000
    321 OP2       -1.6197    -9.2796  1745.5861 O.co2    536 DA      0.0000
    322 O5'       -2.9701    -7.0291  1746.0171 O.3      536 DA      0.0000
    323 C5'       -4.2608    -6.5735  1746.4729 C.3      536 DA      0.0000
    324 C4'       -4.5395    -5.2623  1745.7710 C.3      536 DA      0.0000
    325 O4'       -3.4246    -4.4256  1745.6503 O.3      536 DA      0.0000
    326 C3'       -5.1091    -5.4338  1744.3635 C.3      536 DA      0.0000
    327 O3'       -6.4637    -4.9460  1744.3320 O.3      536 DA      0.0000
    328 C2'       -4.0721    -4.7588  1743.4639 C.3      536 DA      0.0000
    329 C1'       -3.4587    -3.7274  1744.3617 C.3      536 DA      0.0000
    330 N9        -2.0847    -3.3379  1744.0621 N.ar     536 DA      0.0000
    331 C8        -0.9743    -4.1332  1743.8674 C.ar     536 DA      0.0000
    332 N7         0.1333    -3.4561  1743.6619 N.ar     536 DA      0.0000
    333 C5        -0.2599    -2.1341  1743.7365 C.ar     536 DA      0.0000
    334 C6         0.4611    -0.9264  1743.6030 C.ar     536 DA      0.0000
    335 N6         1.7669    -0.8666  1743.3598 N.pl3    536 DA      0.0000
    336 N1        -0.2820     0.2171  1743.7518 N.ar     536 DA      0.0000
    337 C2        -1.6047     0.1876  1744.0043 C.ar     536 DA      0.0000
    338 N3        -2.3502    -0.9128  1744.1432 N.ar     536 DA      0.0000
    339 C4        -1.6154    -2.0377  1743.9960 C.ar     536 DA      0.0000
    340 H5'       -5.0275    -7.3050  1746.2178 H        536 DA      0.0000
    341 H5''      -4.2398    -6.4193  1747.5518 H        536 DA      0.0000
    342 H4'       -5.2847    -4.7288  1746.3611 H        536 DA      0.0000
    343 H3'       -5.1239    -6.4980  1744.1285 H        536 DA      0.0000
    344 H2'       -3.3243    -5.4753  1743.1240 H        536 DA      0.0000
    345 H2''      -4.5583    -4.2825  1742.6126 H        536 DA      0.0000
    346 H1'       -4.0988    -2.8472  1744.4228 H        536 DA      0.0000
    347 H8        -1.0118    -5.2124  1743.8823 H        536 DA      0.0000
    348 H2        -2.1078     1.1382  1744.1034 H        536 DA      0.0000
    349 H61        2.2220    -0.0142  1743.6538 H        536 DA      0.0000
    350 H62        2.2685    -1.6205  1742.9125 H        536 DA      0.0000
    351 P         -7.2824    -5.0062  1742.9471 P.3      535 DT      0.0000
    352 OP1       -8.7643    -4.7972  1743.0052 O.co2    535 DT      0.0000
    353 OP2       -6.8430    -6.3400  1742.4344 O.co2    535 DT      0.0000
    354 O5'       -6.6448    -3.6363  1742.2439 O.3      535 DT      0.0000
    355 C5'       -6.5443    -2.5895  1743.2562 C.3      535 DT      0.0000
    356 C4'       -6.5062    -1.2598  1742.5733 C.3      535 DT      0.0000
    357 O4'       -5.2142    -0.7617  1742.3929 O.3      535 DT      0.0000
    358 C3'       -7.1842    -1.2396  1741.2120 C.3      535 DT      0.0000
    359 O3'       -7.8750    -0.0130  1740.9448 O.3      535 DT      0.0000
    360 C2'       -5.9666    -1.5107  1740.3187 C.3      535 DT      0.0000
    361 C1'       -4.9148    -0.6301  1740.9587 C.3      535 DT      0.0000
    362 N1        -3.5587    -1.1629  1740.7288 N.am     535 DT      0.0000
    363 C2        -2.5256    -0.2504  1740.6071 C.2      535 DT      0.0000
    364 O2        -2.7393     0.9624  1740.6439 O.2      535 DT      0.0000
    365 N3        -1.2569    -0.7354  1740.4397 N.am     535 DT      0.0000
    366 C4        -0.9976    -2.0696  1740.3912 C.2      535 DT      0.0000
    367 O4         0.2034    -2.4287  1740.2057 O.2      535 DT      0.0000
    368 C5        -2.0715    -2.9914  1740.5396 C.2      535 DT      0.0000
    369 C7        -1.8213    -4.4798  1740.4875 C.3      535 DT      0.0000
    370 C6        -3.3037    -2.5019  1740.7126 C.2      535 DT      0.0000
    371 H5'       -7.4090    -2.6363  1743.9183 H        535 DT      0.0000
    372 H5''      -5.6320    -2.7286  1743.8363 H        535 DT      0.0000
    373 H4'       -7.0389    -0.5537  1743.2103 H        535 DT      0.0000
    374 H3'       -7.8819    -2.0739  1741.1400 H        535 DT      0.0000
    375 H2'       -5.6774    -2.5612  1740.3493 H        535 DT      0.0000
    376 H2''      -6.1624    -1.1946  1739.2941 H        535 DT      0.0000
    377 H1'       -5.0009     0.4040  1740.6248 H        535 DT      0.0000
    378 H3        -0.4908    -0.0835  1740.3496 H        535 DT      0.0000
    379 H6        -4.1250    -3.1909  1740.8440 H        535 DT      0.0000
    380 H71       -2.0261    -4.8482  1739.4823 H        535 DT      0.0000
    381 H72       -2.4759    -4.9831  1741.1991 H        535 DT      0.0000
    382 H73       -0.7815    -4.6827  1740.7440 H        535 DT      0.0000
    383 P         -2.4012    -9.7271  1760.6665 P.3      541 DG      0.0000
    384 OP1       -3.3990   -10.8252  1760.6649 O.co2    541 DG      0.0000
    385 OP2       -2.8617    -8.7114  1761.7221 O.co2    541 DG      0.0000
    386 O5'       -0.8756   -10.1423  1760.8448 O.3      541 DG      0.0000
    387 C5'        0.1598   -10.2486  1759.8448 C.3      541 DG      0.0000
    388 C4'        1.3758    -9.4961  1760.3437 C.3      541 DG      0.0000
    389 O4'        1.3749    -8.1486  1759.9245 O.3      541 DG      0.0000
    390 C3'        1.6394    -9.4849  1761.8358 C.3      541 DG      0.0000
    391 O3'        2.9795    -9.9521  1762.1478 O.3      541 DG      0.0000
    392 C2'        1.3908    -8.0492  1762.2577 C.3      541 DG      0.0000
    393 C1'        1.6672    -7.2581  1761.0021 C.3      541 DG      0.0000
    394 N9         0.8277    -6.0467  1760.9730 N.ar     541 DG      0.0000
    395 C8        -0.5216    -5.9149  1761.2019 C.ar     541 DG      0.0000
    396 N7        -0.9631    -4.6807  1761.1122 N.ar     541 DG      0.0000
    397 C5         0.1752    -3.9440  1760.7952 C.ar     541 DG      0.0000
    398 C6         0.3706    -2.5591  1760.5693 C.2      541 DG      0.0000
    399 O6        -0.4678    -1.6575  1760.5906 O.2      541 DG      0.0000
    400 N1         1.6578    -2.1909  1760.2878 N.am     541 DG      0.0000
    401 C2         2.6367    -3.0359  1760.2271 C.2      541 DG      0.0000
    402 N2         3.7245    -2.4377  1759.9303 N.pl3    541 DG      0.0000
    403 N3         2.5453    -4.4157  1760.4359 N.2      541 DG      0.0000
    404 C4         1.2810    -4.7690  1760.7084 C.ar     541 DG      0.0000
    405 H5'        0.4137   -11.2967  1759.6861 H        541 DG      0.0000
    406 H5''      -0.1862    -9.8088  1758.9095 H        541 DG      0.0000
    407 H4'        2.2431    -9.9651  1759.8789 H        541 DG      0.0000
    408 H3'        0.9138   -10.1311  1762.3298 H        541 DG      0.0000
    409 H2'        0.3600    -7.9126  1762.5847 H        541 DG      0.0000
    410 H2''       2.0823    -7.7602  1763.0492 H        541 DG      0.0000
    411 H1'        2.7196    -6.9762  1760.9701 H        541 DG      0.0000
    412 H8        -1.1624    -6.7525  1761.4350 H        541 DG      0.0000
    413 H1         1.8533    -1.2144  1760.1194 H        541 DG      0.0000
    414 H21        3.7280    -1.4381  1759.7860 H        541 DG      0.0000
    415 H22        4.5818    -2.9640  1759.8399 H        541 DG      0.0000
    416 P          3.6302    -9.7837  1763.5764 P.3      542 DT      0.0000
    417 OP1        4.4302   -10.9536  1764.0881 O.co2    542 DT      0.0000
    418 OP2        2.3964    -9.7219  1764.4951 O.co2    542 DT      0.0000
    419 O5'        4.3545    -8.4135  1763.6050 O.3      542 DT      0.0000
    420 C5'        5.7946    -8.2729  1763.4610 C.3      542 DT      0.0000
    421 C4'        6.0400    -6.7796  1763.5185 C.3      542 DT      0.0000
    422 O4'        4.8727    -6.0367  1763.2433 O.3      542 DT      0.0000
    423 C3'        6.5407    -6.2324  1764.8312 C.3      542 DT      0.0000
    424 O3'        7.8681    -5.7203  1764.6430 O.3      542 DT      0.0000
    425 C2'        5.5619    -5.1259  1765.2234 C.3      542 DT      0.0000
    426 C1'        5.0293    -4.7306  1763.8707 C.3      542 DT      0.0000
    427 N1         3.6986    -4.1302  1763.9673 N.am     542 DT      0.0000
    428 C2         3.6007    -2.7795  1763.7694 C.2      542 DT      0.0000
    429 O2         4.5789    -2.0748  1763.5312 O.2      542 DT      0.0000
    430 N3         2.3510    -2.2266  1763.8505 N.am     542 DT      0.0000
    431 C4         1.2404    -2.9544  1764.1064 C.2      542 DT      0.0000
    432 O4         0.1620    -2.3066  1764.1516 O.2      542 DT      0.0000
    433 C5         1.3621    -4.3670  1764.3061 C.2      542 DT      0.0000
    434 C7         0.1591    -5.2079  1764.5860 C.3      542 DT      0.0000
    435 C6         2.5883    -4.8994  1764.2246 C.2      542 DT      0.0000
    436 H5'        6.3138    -8.7797  1764.2744 H        542 DT      0.0000
    437 H5''       6.1186    -8.6720  1762.4998 H        542 DT      0.0000
    438 H4'        6.7772    -6.5347  1762.7539 H        542 DT      0.0000
    439 H3'        6.5443    -7.0166  1765.5883 H        542 DT      0.0000
    440 H2'        4.7705    -5.5015  1765.8723 H        542 DT      0.0000
    441 H2''       6.0857    -4.2931  1765.6927 H        542 DT      0.0000
    442 H1'        5.7270    -4.0951  1763.3254 H        542 DT      0.0000
    443 H3         2.2543    -1.2307  1763.7130 H        542 DT      0.0000
    444 H6         2.7084    -5.9635  1764.3649 H        542 DT      0.0000
    445 H71       -0.1311    -5.7406  1763.6804 H        542 DT      0.0000
    446 H72       -0.6624    -4.5694  1764.9107 H        542 DT      0.0000
    447 H73        0.3930    -5.9267  1765.3713 H        542 DT      0.0000
    448 P          8.8379    -5.9797  1765.9229 P.3      543 DG      0.0000
    449 OP1       10.1553    -6.2513  1765.2079 O.co2    543 DG      0.0000
    450 OP2        8.3298    -7.1121  1766.6765 O.co2    543 DG      0.0000
    451 O5'        8.7107    -4.4709  1766.5325 O.3      543 DG      0.0000
    452 C5'        8.8740    -3.4873  1765.4419 C.3      543 DG      0.0000
    453 C4'        8.4261    -2.1532  1765.9619 C.3      543 DG      0.0000
    454 O4'        7.0726    -1.8327  1765.7813 O.3      543 DG      0.0000
    455 C3'        8.7280    -1.9740  1767.4699 C.3      543 DG      0.0000
    456 O3'        9.4916    -0.7537  1767.6288 O.3      543 DG      0.0000
    457 C2'        7.3624    -2.0033  1768.1225 C.3      543 DG      0.0000
    458 C1'        6.4879    -1.3798  1767.0410 C.3      543 DG      0.0000
    459 N9         5.0797    -1.7549  1767.2105 N.ar     543 DG      0.0000
    460 C8         4.5529    -2.9714  1767.5467 C.ar     543 DG      0.0000
    461 N7         3.2411    -2.9958  1767.6325 N.ar     543 DG      0.0000
    462 C5         2.8827    -1.6908  1767.3024 C.ar     543 DG      0.0000
    463 C6         1.6035    -1.0717  1767.2081 C.2      543 DG      0.0000
    464 O6         0.4896    -1.5816  1767.4004 O.2      543 DG      0.0000
    465 N1         1.6407     0.2625  1766.8731 N.am     543 DG      0.0000
    466 C2         2.8136     0.9167  1766.6493 C.2      543 DG      0.0000
    467 N2         2.6586     2.2109  1766.3405 N.pl3    543 DG      0.0000
    468 N3         4.0309     0.3829  1766.7203 N.2      543 DG      0.0000
    469 C4         3.9968    -0.9205  1767.0469 C.ar     543 DG      0.0000
    470 H5'        9.9205    -3.4365  1765.1414 H        543 DG      0.0000
    471 H5''       8.2592    -3.7762  1764.5895 H        543 DG      0.0000
    472 H4'        9.0040    -1.3965  1765.4313 H        543 DG      0.0000
    473 H3'        9.3176    -2.8193  1767.8247 H        543 DG      0.0000
    474 H2'        7.0509    -3.0237  1768.3455 H        543 DG      0.0000
    475 H2''       7.3535    -1.3920  1769.0249 H        543 DG      0.0000
    476 H1'        6.5736    -0.2948  1767.0999 H        543 DG      0.0000
    477 H8         5.1654    -3.8424  1767.7273 H        543 DG      0.0000
    478 H1         0.7722     0.7715  1766.7907 H        543 DG      0.0000
    479 H21        1.7325     2.6107  1766.2902 H        543 DG      0.0000
    480 H22        3.4680     2.7869  1766.1578 H        543 DG      0.0000
    481 P         10.0666    -0.3232  1769.0172 P.3      544 DA      0.0000
    482 OP1       11.4252    -0.8343  1769.3726 O.co2    544 DA      0.0000
    483 OP2        9.0236    -1.0871  1769.9130 O.co2    544 DA      0.0000
    484 O5'        9.7351     1.2074  1769.2663 O.3      544 DA      0.0000
    485 C5'        9.4621     2.1698  1768.2373 C.3      544 DA      0.0000
    486 C4'        8.2314     2.9255  1768.7116 C.3      544 DA      0.0000
    487 O4'        7.0859     2.1057  1768.6212 O.3      544 DA      0.0000
    488 C3'        8.2787     3.4665  1770.1407 C.3      544 DA      0.0000
    489 O3'        7.8435     4.8409  1770.1930 O.3      544 DA      0.0000
    490 C2'        7.3321     2.5101  1770.8761 C.3      544 DA      0.0000
    491 C1'        6.2715     2.3428  1769.7985 C.3      544 DA      0.0000
    492 N9         5.3704     1.2088  1770.0269 N.ar     544 DA      0.0000
    493 C8         5.6553    -0.1097  1770.2427 C.ar     544 DA      0.0000
    494 N7         4.5920    -0.8645  1770.4077 N.ar     544 DA      0.0000
    495 C5         3.5321     0.0188  1770.2675 C.ar     544 DA      0.0000
    496 C6         2.1350    -0.1808  1770.3154 C.ar     544 DA      0.0000
    497 N6         1.5480    -1.3596  1770.5352 N.pl3    544 DA      0.0000
    498 N1         1.3795     0.9416  1770.1256 N.ar     544 DA      0.0000
    499 C2         1.9544     2.1469  1769.9079 C.ar     544 DA      0.0000
    500 N3         3.2594     2.4096  1769.8496 N.ar     544 DA      0.0000
    501 C4         3.9876     1.2938  1770.0365 C.ar     544 DA      0.0000
    502 H5'        9.2611     1.6692  1767.2901 H        544 DA      0.0000
    503 H5''      10.3042     2.8535  1768.1295 H        544 DA      0.0000
    504 H4'        8.0851     3.7730  1768.0418 H        544 DA      0.0000
    505 H3'        9.2881     3.3773  1770.5421 H        544 DA      0.0000
    506 H2'        7.8167     1.5651  1771.1216 H        544 DA      0.0000
    507 H2''       6.9150     2.9796  1771.7670 H        544 DA      0.0000
    508 H1'        5.6996     3.2636  1769.6840 H        544 DA      0.0000
    509 H8         6.6631    -0.4967  1770.2748 H        544 DA      0.0000
    510 H2         1.2858     2.9833  1769.7665 H        544 DA      0.0000
    511 H61        1.9991    -2.2580  1770.4378 H        544 DA      0.0000
    512 H62        0.5559    -1.4402  1770.3637 H        544 DA      0.0000
    513 P          8.3841     5.8912  1771.3344 P.3      545 DA      0.0000
    514 OP1        9.1140     7.0304  1770.6673 O.co2    545 DA      0.0000
    515 OP2        9.2217     5.0025  1772.1653 O.co2    545 DA      0.0000
    516 O5'        7.0310     6.5488  1771.8652 O.3      545 DA      0.0000
    517 C5'        6.1437     7.3027  1771.0409 C.3      545 DA      0.0000
    518 C4'        4.7315     7.1049  1771.5632 C.3      545 DA      0.0000
    519 O4'        4.3861     5.7488  1771.5914 O.3      545 DA      0.0000
    520 C3'        4.4040     7.6795  1772.9305 C.3      545 DA      0.0000
    521 O3'        3.4097     8.7007  1772.8527 O.3      545 DA      0.0000
    522 C2'        4.0122     6.4499  1773.7593 C.3      545 DA      0.0000
    523 C1'        3.5634     5.4502  1772.7655 C.3      545 DA      0.0000
    524 N9         3.7207     4.0091  1773.0335 N.ar     545 DA      0.0000
    525 C8         4.8607     3.2512  1773.1487 C.ar     545 DA      0.0000
    526 N7         4.6383     1.9693  1773.3180 N.ar     545 DA      0.0000
    527 C5         3.2514     1.8658  1773.2810 C.ar     545 DA      0.0000
    528 C6         2.3812     0.7450  1773.4014 C.ar     545 DA      0.0000
    529 N6         2.7648    -0.5109  1773.5931 N.pl3    545 DA      0.0000
    530 N1         1.0406     1.0222  1773.3033 N.ar     545 DA      0.0000
    531 C2         0.6077     2.3025  1773.1142 C.ar     545 DA      0.0000
    532 N3         1.3626     3.3899  1773.0063 N.ar     545 DA      0.0000
    533 C4         2.6765     3.1021  1773.0982 C.ar     545 DA      0.0000
    534 H5'        6.2090     6.9522  1770.0109 H        545 DA      0.0000
    535 H5''       6.4078     8.3593  1771.0869 H        545 DA      0.0000
    536 H4'        4.0617     7.5859  1770.8505 H        545 DA      0.0000
    537 H3'        5.3118     8.1094  1773.3537 H        545 DA      0.0000
    538 H2'        4.8692     6.0759  1774.3195 H        545 DA      0.0000
    539 H2''       3.1969     6.6978  1774.4388 H        545 DA      0.0000
    540 H1'        2.5200     5.6472  1772.5194 H        545 DA      0.0000
    541 H8         5.8536     3.6737  1773.1038 H        545 DA      0.0000
    542 H2        -0.4604     2.4465  1773.0450 H        545 DA      0.0000
    543 H61        3.6910    -0.7478  1773.9193 H        545 DA      0.0000
    544 H62        2.1083    -1.2554  1773.4063 H        545 DA      0.0000
    545 P          3.3260    10.0133  1773.8089 P.3      546 DT      0.0000
    546 OP1        2.9762    11.2647  1773.0116 O.co2    546 DT      0.0000
    547 OP2        4.5137    10.1249  1774.6295 O.co2    546 DT      0.0000
    548 O5'        1.9233     9.7390  1774.6226 O.3      546 DT      0.0000
    549 C5'        0.9147     9.1785  1773.6775 C.3      546 DT      0.0000
    550 C4'        0.2293     8.0910  1774.4652 C.3      546 DT      0.0000
    551 O4'        1.0254     6.9432  1774.6572 O.3      546 DT      0.0000
    552 C3'       -0.1579     8.5542  1775.8818 C.3      546 DT      0.0000
    553 O3'       -1.5201     8.9393  1775.8835 O.3      546 DT      0.0000
    554 C2'        0.1739     7.3644  1776.7791 C.3      546 DT      0.0000
    555 C1'        0.3689     6.2637  1775.8145 C.3      546 DT      0.0000
    556 N1         1.2021     5.1213  1776.1542 N.am     546 DT      0.0000
    557 C2         0.5605     3.8944  1776.2922 C.2      546 DT      0.0000
    558 O2        -0.6590     3.8318  1776.2041 O.2      546 DT      0.0000
    559 N3         1.3225     2.7941  1776.5462 N.am     546 DT      0.0000
    560 C4         2.6816     2.8498  1776.6663 C.2      546 DT      0.0000
    561 O4         3.3213     1.7799  1776.9215 O.2      546 DT      0.0000
    562 C5         3.3227     4.1207  1776.4947 C.2      546 DT      0.0000
    563 C7         4.8195     4.2332  1776.5822 C.3      546 DT      0.0000
    564 C6         2.5668     5.2024  1776.2390 C.2      546 DT      0.0000
    565 H5'        0.2007     9.9450  1773.3759 H        546 DT      0.0000
    566 H5''       1.4095     8.7572  1772.8025 H        546 DT      0.0000
    567 H4'       -0.6778     7.7990  1773.9361 H        546 DT      0.0000
    568 H3'        0.4600     9.4060  1776.1662 H        546 DT      0.0000
    569 H2'        1.0825     7.5480  1777.3525 H        546 DT      0.0000
    570 H2''      -0.6602     7.1446  1777.4455 H        546 DT      0.0000
    571 H1'       -0.6086     5.9005  1775.4971 H        546 DT      0.0000
    572 H3         0.8633     1.9005  1776.6499 H        546 DT      0.0000
    573 H6         3.0473     6.1591  1776.0968 H        546 DT      0.0000
    574 H71        5.2462     3.2531  1776.7953 H        546 DT      0.0000
    575 H72        5.2119     4.6019  1775.6345 H        546 DT      0.0000
    576 H73        5.0858     4.9266  1777.3800 H        546 DT      0.0000
    577 P         -2.3287     9.6682  1776.9901 P.3      547 DT      0.0000
    578 OP1       -3.5649    10.3764  1776.3780 O.co2    547 DT      0.0000
    579 OP2       -1.3942    10.6361  1777.6201 O.co2    547 DT      0.0000
    580 O5'       -2.9577     8.4859  1777.8724 O.3      547 DT      0.0000
    581 C5'       -3.9909     7.7534  1777.1607 C.3      547 DT      0.0000
    582 C4'       -4.1991     6.4428  1777.8368 C.3      547 DT      0.0000
    583 O4'       -3.0563     5.5966  1777.8135 O.3      547 DT      0.0000
    584 C3'       -4.6411     6.5490  1779.3035 C.3      547 DT      0.0000
    585 O3'       -5.6835     5.6294  1779.5675 O.3      547 DT      0.0000
    586 C2'       -3.3540     6.1071  1780.0398 C.3      547 DT      0.0000
    587 C1'       -2.9977     4.9442  1779.1362 C.3      547 DT      0.0000
    588 N1        -1.6703     4.4389  1779.4339 N.am     547 DT      0.0000
    589 C2        -1.4821     3.0674  1779.4888 C.2      547 DT      0.0000
    590 O2        -2.4471     2.3253  1779.3003 O.2      547 DT      0.0000
    591 N3        -0.2269     2.5974  1779.7547 N.am     547 DT      0.0000
    592 C4         0.8306     3.4290  1779.9617 C.2      547 DT      0.0000
    593 O4         1.9667     2.9213  1780.1850 O.2      547 DT      0.0000
    594 C5         0.6262     4.8382  1779.8966 C.2      547 DT      0.0000
    595 C7         1.7424     5.8194  1780.1065 C.3      547 DT      0.0000
    596 C6        -0.6130     5.2826  1779.6355 C.2      547 DT      0.0000
    597 H5'       -4.9196     8.3239  1777.1731 H        547 DT      0.0000
    598 H5''      -3.6775     7.5874  1776.1300 H        547 DT      0.0000
    599 H4'       -4.9933     5.9257  1777.2984 H        547 DT      0.0000
    600 H3'       -4.9261     7.5679  1779.5659 H        547 DT      0.0000
    601 H2'       -2.5884     6.8829  1780.0386 H        547 DT      0.0000
    602 H2''      -3.5735     5.7689  1781.0525 H        547 DT      0.0000
    603 H1'       -3.7415     4.1511  1779.2119 H        547 DT      0.0000
    604 H3        -0.0788     1.5993  1779.7991 H        547 DT      0.0000
    605 H6        -0.7818     6.3480  1779.5824 H        547 DT      0.0000
    606 H71        2.6685     5.2800  1780.3055 H        547 DT      0.0000
    607 H72        1.8627     6.4294  1779.2112 H        547 DT      0.0000
    608 H73        1.5067     6.4618  1780.9549 H        547 DT      0.0000
    609 P         -7.1288     5.6964  1780.1755 P.3      548 DC      0.0000
    610 OP1       -8.1880     5.5022  1779.1075 O.co2    548 DC      0.0000
    611 OP2       -7.1838     6.9733  1780.9104 O.co2    548 DC      0.0000
    612 O5'       -7.0436     4.2927  1781.0015 O.3      548 DC      0.0000
    613 C5'       -6.6234     3.3161  1779.9792 C.3      548 DC      0.0000
    614 C4'       -6.4492     1.9965  1780.6757 C.3      548 DC      0.0000
    615 O4'       -5.1114     1.6922  1780.9226 O.3      548 DC      0.0000
    616 C3'       -7.2434     1.8366  1781.9672 C.3      548 DC      0.0000
    617 O3'       -8.0898     0.6973  1781.8875 O.3      548 DC      0.0000
    618 C2'       -6.1291     1.8392  1783.0160 C.3      548 DC      0.0000
    619 C1'       -4.9556     1.2730  1782.3195 C.3      548 DC      0.0000
    620 N1        -3.6445     1.8395  1782.6516 N.am     548 DC      0.0000
    621 C2        -2.6310     0.9185  1782.9074 C.2      548 DC      0.0000
    622 O2        -2.8525    -0.2963  1782.9119 O.2      548 DC      0.0000
    623 N3        -1.3802     1.4142  1783.1813 N.2      548 DC      0.0000
    624 C4        -1.1274     2.7545  1783.1714 C.2      548 DC      0.0000
    625 N4         0.1147     3.1356  1783.4482 N.pl3    548 DC      0.0000
    626 C5        -2.1612     3.6757  1782.8933 C.2      548 DC      0.0000
    627 C6        -3.3846     3.1731  1782.6286 C.2      548 DC      0.0000
    628 H5'       -7.3867     3.2327  1779.2056 H        548 DC      0.0000
    629 H5''      -5.6782     3.6281  1779.5350 H        548 DC      0.0000
    630 H4'       -6.8181     1.2340  1779.9898 H        548 DC      0.0000
    631 H3'       -7.8615     2.7229  1782.1105 H        548 DC      0.0000
    632 H2'       -5.9222     2.8546  1783.3539 H        548 DC      0.0000
    633 H2''      -6.4058     1.2095  1783.8615 H        548 DC      0.0000
    634 H1'       -4.9419     0.1861  1782.4005 H        548 DC      0.0000
    635 H5        -1.9795     4.7402  1782.8928 H        548 DC      0.0000
    636 H6        -4.1869     3.8555  1782.3895 H        548 DC      0.0000
    637 H41        0.8228     2.4435  1783.6474 H        548 DC      0.0000
    638 H42        0.3509     4.1175  1783.4595 H        548 DC      0.0000
    639 P         -9.3647     0.3785  1782.8396 P.3      549 DA      0.0000
    640 OP1      -10.2981    -0.5153  1782.0458 O.co2    549 DA      0.0000
    641 OP2      -10.0032     1.6649  1783.1851 O.co2    549 DA      0.0000
    642 O5'       -8.7081    -0.3928  1784.1366 O.3      549 DA      0.0000
    643 C5'       -7.8577    -1.5428  1783.8413 C.3      549 DA      0.0000
    644 C4'       -7.2527    -2.0805  1785.0966 C.3      549 DA      0.0000
    645 O4'       -5.9006    -1.6801  1785.3388 O.3      549 DA      0.0000
    646 C3'       -7.9524    -1.6659  1786.4018 C.3      549 DA      0.0000
    647 O3'       -7.5749    -2.5824  1787.4318 O.3      549 DA      0.0000
    648 C2'       -7.2862    -0.2922  1786.6164 C.3      549 DA      0.0000
    649 C1'       -5.8412    -0.7685  1786.4332 C.3      549 DA      0.0000
    650 N9        -4.9649     0.3868  1786.3388 N.ar     549 DA      0.0000
    651 C8        -5.2555     1.7179  1786.2230 C.ar     549 DA      0.0000
    652 N7        -4.2051     2.5187  1786.2044 N.ar     549 DA      0.0000
    653 C5        -3.1360     1.6404  1786.3120 C.ar     549 DA      0.0000
    654 C6        -1.7353     1.8500  1786.3465 C.ar     549 DA      0.0000
    655 N6        -1.1525     3.0323  1786.2612 N.pl3    549 DA      0.0000
    656 N1        -0.9631     0.7317  1786.4790 N.ar     549 DA      0.0000
    657 C2        -1.5255    -0.5145  1786.5592 C.ar     549 DA      0.0000
    658 N3        -2.8271    -0.7907  1786.5294 N.ar     549 DA      0.0000
    659 C4        -3.5784     0.3310  1786.4064 C.ar     549 DA      0.0000
    660 H5'       -8.4577    -2.3213  1783.3702 H        549 DA      0.0000
    661 H5''      -7.0631    -1.2382  1783.1600 H        549 DA      0.0000
    662 H4'       -7.2733    -3.1686  1785.0377 H        549 DA      0.0000
    663 H3'       -9.0338    -1.5905  1786.2882 H        549 DA      0.0000
    664 H2'       -7.5843     0.4396  1785.8657 H        549 DA      0.0000
    665 H2''      -7.4578     0.0805  1787.6263 H        549 DA      0.0000
    666 H1'       -5.5588    -1.3313  1787.3228 H        549 DA      0.0000
    667 H8        -6.2680     2.0870  1786.1520 H        549 DA      0.0000
    668 H2        -0.8496    -1.3512  1786.6557 H        549 DA      0.0000
    669 H61       -0.2180     3.3706  1786.4413 H        549 DA      0.0000
    670 H62       -1.7800     3.7584  1785.9465 H        549 DA      0.0000
    671 P         -8.2758    -4.0140  1787.5722 P.3      550 DC      0.0000
    672 OP1       -8.9661    -4.4549  1786.3271 O.co2    550 DC      0.0000
    673 OP2       -9.2239    -3.7923  1788.7151 O.co2    550 DC      0.0000
    674 O5'       -7.0583    -4.9897  1787.8554 O.3      550 DC      0.0000
    675 C5'       -6.2334    -5.5066  1786.7677 C.3      550 DC      0.0000
    676 C4'       -4.8874    -5.7095  1787.4726 C.3      550 DC      0.0000
    677 O4'       -4.3799    -4.4329  1787.7846 O.3      550 DC      0.0000
    678 C3'       -4.9895    -6.4865  1788.7825 C.3      550 DC      0.0000
    679 O3'       -4.0684    -7.5985  1788.8504 O.3      550 DC      0.0000
    680 C2'       -4.7409    -5.4249  1789.8647 C.3      550 DC      0.0000
    681 C1'       -3.8250    -4.4873  1789.1886 C.3      550 DC      0.0000
    682 N1        -3.7870    -3.0705  1789.5414 N.am     550 DC      0.0000
    683 C2        -2.5215    -2.4873  1789.5145 C.2      550 DC      0.0000
    684 O2        -1.5007    -3.1313  1789.3076 O.2      550 DC      0.0000
    685 N3        -2.4427    -1.1533  1789.7676 N.2      550 DC      0.0000
    686 C4        -3.5383    -0.3910  1790.0010 C.2      550 DC      0.0000
    687 N4        -3.3334     0.9044  1790.2319 N.pl3    550 DC      0.0000
    688 C5        -4.8256    -0.9952  1790.0075 C.2      550 DC      0.0000
    689 C6        -4.8956    -2.3120  1789.7581 C.2      550 DC      0.0000
    690 H5'       -6.6266    -6.4475  1786.3828 H        550 DC      0.0000
    691 H5''      -6.1432    -4.7707  1785.9687 H        550 DC      0.0000
    692 H4'       -4.1983    -6.2200  1786.8000 H        550 DC      0.0000
    693 H3'       -6.0061    -6.8651  1788.8884 H        550 DC      0.0000
    694 H2'       -5.6691    -4.9306  1790.1517 H        550 DC      0.0000
    695 H2''      -4.2592    -5.8706  1790.7350 H        550 DC      0.0000
    696 H1'       -2.8147    -4.8963  1789.1753 H        550 DC      0.0000
    697 H5        -5.7149    -0.4153  1790.2061 H        550 DC      0.0000
    698 H6        -5.8655    -2.7861  1789.7284 H        550 DC      0.0000
    699 H41       -2.3947     1.2770  1790.2209 H        550 DC      0.0000
    700 H42       -4.1167     1.5143  1790.4181 H        550 DC      0.0000
    701 P          5.1498     6.7473  1791.8100 P.3      550 DG      0.0000
    702 OP1        5.9966     7.9671  1791.9887 O.co2    550 DG      0.0000
    703 OP2        4.0931     6.9086  1790.7251 O.co2    550 DG      0.0000
    704 O5'        6.1208     5.4345  1791.6027 O.3      550 DG      0.0000
    705 C5'        6.2620     4.4705  1792.6985 C.3      550 DG      0.0000
    706 C4'        6.3243     3.0830  1792.0642 C.3      550 DG      0.0000
    707 O4'        5.0571     2.4919  1791.9684 O.3      550 DG      0.0000
    708 C3'        6.9171     3.0573  1790.6579 C.3      550 DG      0.0000
    709 O3'        7.7724     1.9219  1790.3909 O.3      550 DG      0.0000
    710 C2'        5.6700     3.0484  1789.7556 C.3      550 DG      0.0000
    711 C1'        4.7293     2.1848  1790.5794 C.3      550 DG      0.0000
    712 N9         3.3222     2.5236  1790.3061 N.ar     550 DG      0.0000
    713 C8         2.7686     3.7720  1790.1494 C.ar     550 DG      0.0000
    714 N7         1.4805     3.7580  1789.9310 N.ar     550 DG      0.0000
    715 C5         1.1569     2.4065  1789.9558 C.ar     550 DG      0.0000
    716 C6        -0.0859     1.7368  1789.7994 C.2      550 DG      0.0000
    717 O6        -1.1905     2.2632  1789.6025 O.2      550 DG      0.0000
    718 N1        -0.0057     0.3688  1789.8863 N.am     550 DG      0.0000
    719 C2         1.1620    -0.2834  1790.1070 C.2      550 DG      0.0000
    720 N2         1.0852    -1.6098  1790.1703 N.pl3    550 DG      0.0000
    721 N3         2.3574     0.2981  1790.2647 N.2      550 DG      0.0000
    722 C4         2.2779     1.6404  1790.1814 C.ar     550 DG      0.0000
    723 H5'        7.1772     4.6689  1793.2563 H        550 DG      0.0000
    724 H5''       5.4008     4.5360  1793.3634 H        550 DG      0.0000
    725 H4'        6.9426     2.4502  1792.7009 H        550 DG      0.0000
    726 H3'        7.4772     3.9768  1790.4874 H        550 DG      0.0000
    727 H2'        5.2710     4.0527  1789.6129 H        550 DG      0.0000
    728 H2''       5.8884     2.5782  1788.7968 H        550 DG      0.0000
    729 H1'        4.9096     1.1296  1790.3742 H        550 DG      0.0000
    730 H8         3.3465     4.6828  1790.2022 H        550 DG      0.0000
    731 H1        -0.8511    -0.1736  1789.7815 H        550 DG      0.0000
    732 H21        0.1935    -2.0701  1790.0552 H        550 DG      0.0000
    733 H22        1.9184    -2.1568  1790.3335 H        550 DG      0.0000
    734 P          7.8120     1.4265  1788.8674 P.3      549 DT      0.0000
    735 OP1        9.1084     0.7697  1788.4765 O.co2    549 DT      0.0000
    736 OP2        7.6333     2.7220  1788.1669 O.co2    549 DT      0.0000
    737 O5'        6.6047     0.3812  1788.7365 O.3      549 DT      0.0000
    738 C5'        6.9169    -1.0234  1789.0041 C.3      549 DT      0.0000
    739 C4'        5.9300    -1.8853  1788.2471 C.3      549 DT      0.0000
    740 O4'        4.6248    -1.3359  1788.2198 O.3      549 DT      0.0000
    741 C3'        6.3187    -2.0993  1786.7924 C.3      549 DT      0.0000
    742 O3'        6.0369    -3.4263  1786.2973 O.3      549 DT      0.0000
    743 C2'        5.5104    -1.0447  1786.0695 C.3      549 DT      0.0000
    744 C1'        4.2095    -1.1532  1786.8476 C.3      549 DT      0.0000
    745 N1         3.5166     0.1359  1786.6963 N.am     549 DT      0.0000
    746 C2         2.1299     0.1046  1786.8031 C.2      549 DT      0.0000
    747 O2         1.5449    -0.9565  1786.9928 O.2      549 DT      0.0000
    748 N3         1.4676     1.2942  1786.6829 N.am     549 DT      0.0000
    749 C4         2.1262     2.4672  1786.4654 C.2      549 DT      0.0000
    750 O4         1.4223     3.5263  1786.3678 O.2      549 DT      0.0000
    751 C5         3.5464     2.4677  1786.3590 C.2      549 DT      0.0000
    752 C7         4.2834     3.7561  1786.1300 C.3      549 DT      0.0000
    753 C6         4.1881     1.3028  1786.4807 C.2      549 DT      0.0000
    754 H5'        7.9306    -1.2450  1788.6704 H        549 DT      0.0000
    755 H5''       6.8315    -1.2207  1790.0727 H        549 DT      0.0000
    756 H4'        5.8814    -2.8588  1788.7350 H        549 DT      0.0000
    757 H3'        7.3806    -1.8868  1786.6684 H        549 DT      0.0000
    758 H2'        5.9581    -0.0551  1786.1611 H        549 DT      0.0000
    759 H2''       5.3641    -1.3128  1785.0231 H        549 DT      0.0000
    760 H1'        3.5974    -1.9842  1786.4970 H        549 DT      0.0000
    761 H3         0.4604     1.3042  1786.7576 H        549 DT      0.0000
    762 H6         5.2654     1.2847  1786.4066 H        549 DT      0.0000
    763 H71        3.5692     4.5765  1786.0613 H        549 DT      0.0000
    764 H72        4.9653     3.9369  1786.9609 H        549 DT      0.0000
    765 H73        4.8512     3.6899  1785.2019 H        549 DT      0.0000
    766 P          7.4030    -3.9576  1785.5189 P.3      548 DG      0.0000
    767 OP1        8.3050    -4.7698  1786.3901 O.co2    548 DG      0.0000
    768 OP2        7.9507    -2.6391  1785.1133 O.co2    548 DG      0.0000
    769 O5'        6.7575    -4.9424  1784.4381 O.3      548 DG      0.0000
    770 C5'        6.3297    -6.2617  1784.8615 C.3      548 DG      0.0000
    771 C4'        4.8770    -6.3623  1784.4138 C.3      548 DG      0.0000
    772 O4'        4.2111    -5.1451  1784.6845 O.3      548 DG      0.0000
    773 C3'        4.6951    -6.6632  1782.9261 C.3      548 DG      0.0000
    774 O3'        3.9109    -7.8241  1782.7176 O.3      548 DG      0.0000
    775 C2'        4.1277    -5.3784  1782.3494 C.3      548 DG      0.0000
    776 C1'        3.4239    -4.7626  1783.5355 C.3      548 DG      0.0000
    777 N9         3.3686    -3.3035  1783.4119 N.ar     548 DG      0.0000
    778 C8         4.4035    -2.4260  1783.2531 C.ar     548 DG      0.0000
    779 N7         4.0258    -1.1732  1783.1750 N.ar     548 DG      0.0000
    780 C5         2.6419    -1.2281  1783.3125 C.ar     548 DG      0.0000
    781 C6         1.6500    -0.2122  1783.3220 C.2      548 DG      0.0000
    782 O6         1.8279     0.9976  1783.2229 O.2      548 DG      0.0000
    783 N1         0.3710    -0.6680  1783.4710 N.am     548 DG      0.0000
    784 C2         0.0831    -2.0049  1783.6039 C.2      548 DG      0.0000
    785 N2        -1.2073    -2.3120  1783.7395 N.pl3    548 DG      0.0000
    786 N3         0.9660    -3.0087  1783.6081 N.2      548 DG      0.0000
    787 C4         2.2289    -2.5417  1783.4575 C.ar     548 DG      0.0000
    788 H5'        6.9331    -7.0330  1784.3828 H        548 DG      0.0000
    789 H5''       6.3968    -6.3497  1785.9459 H        548 DG      0.0000
    790 H4'        4.3940    -7.1538  1784.9868 H        548 DG      0.0000
    791 H3'        5.6788    -6.8308  1782.4875 H        548 DG      0.0000
    792 H2'        4.9219    -4.7280  1781.9830 H        548 DG      0.0000
    793 H2''       3.4156    -5.5980  1781.5538 H        548 DG      0.0000
    794 H1'        2.4158    -5.1680  1783.6225 H        548 DG      0.0000
    795 H8         5.4366    -2.7356  1783.1970 H        548 DG      0.0000
    796 H1        -0.3873    -0.0010  1783.4838 H        548 DG      0.0000
    797 H21       -1.9033    -1.5801  1783.7405 H        548 DG      0.0000
    798 H22       -1.4888    -3.2766  1783.8413 H        548 DG      0.0000
    799 P          2.6360    -8.1723  1781.8513 P.3      547 DA      0.0000
    800 OP1        1.7065    -9.1096  1782.6326 O.co2    547 DA      0.0000
    801 OP2        3.1559    -8.8449  1780.6586 O.co2    547 DA      0.0000
    802 O5'        1.8104    -6.7787  1781.6765 O.3      547 DA      0.0000
    803 C5'        0.9288    -6.5203  1782.8329 C.3      547 DA      0.0000
    804 C4'       -0.4845    -6.5196  1782.3051 C.3      547 DA      0.0000
    805 O4'       -0.9747    -5.2217  1782.0828 O.3      547 DA      0.0000
    806 C3'       -0.6202    -7.2407  1780.9646 C.3      547 DA      0.0000
    807 O3'       -1.7850    -8.0274  1780.8894 O.3      547 DA      0.0000
    808 C2'       -0.4696    -6.1054  1779.9680 C.3      547 DA      0.0000
    809 C1'       -0.8637    -4.8482  1780.6919 C.3      547 DA      0.0000
    810 N9         0.1072    -3.7638  1780.4664 N.ar     547 DA      0.0000
    811 C8         1.4702    -3.8464  1780.2800 C.ar     547 DA      0.0000
    812 N7         2.0610    -2.6902  1780.0841 N.ar     547 DA      0.0000
    813 C5         1.0151    -1.7799  1780.1710 C.ar     547 DA      0.0000
    814 C6         0.9908    -0.3696  1780.0653 C.ar     547 DA      0.0000
    815 N6         2.0646     0.3706  1779.8529 N.pl3    547 DA      0.0000
    816 N1        -0.2308     0.2190  1780.1891 N.ar     547 DA      0.0000
    817 C2        -1.3569    -0.5205  1780.4136 C.ar     547 DA      0.0000
    818 N3        -1.4020    -1.8461  1780.5295 N.ar     547 DA      0.0000
    819 C4        -0.1820    -2.4198  1780.3934 C.ar     547 DA      0.0000
    820 H5'        1.0505    -7.3037  1783.5810 H        547 DA      0.0000
    821 H5''       1.1631    -5.5495  1783.2696 H        547 DA      0.0000
    822 H4'       -1.1278    -7.0144  1783.0328 H        547 DA      0.0000
    823 H3'        0.2388    -7.9021  1780.8515 H        547 DA      0.0000
    824 H2'       -1.1235    -6.2672  1779.1112 H        547 DA      0.0000
    825 H2''       0.5667    -6.0353  1779.6375 H        547 DA      0.0000
    826 H1'       -1.8415    -4.5266  1780.3337 H        547 DA      0.0000
    827 H8         2.0073    -4.7833  1780.2939 H        547 DA      0.0000
    828 H2        -2.2900     0.0155  1780.5048 H        547 DA      0.0000
    829 H61        2.1093     1.3291  1780.1683 H        547 DA      0.0000
    830 H62        2.8545    -0.0291  1779.3666 H        547 DA      0.0000
    831 P         -2.7985    -8.2850  1779.7048 P.3      546 DA      0.0000
    832 OP1       -4.0687    -9.0194  1780.2247 O.co2    546 DA      0.0000
    833 OP2       -2.0606    -9.1918  1778.7712 O.co2    546 DA      0.0000
    834 O5'       -3.3021    -6.8794  1779.2021 O.3      546 DA      0.0000
    835 C5'       -4.5696    -6.3627  1779.6580 C.3      546 DA      0.0000
    836 C4'       -4.7854    -5.0397  1778.9561 C.3      546 DA      0.0000
    837 O4'       -3.6318    -4.2572  1778.8353 O.3      546 DA      0.0000
    838 C3'       -5.3625    -5.1838  1777.5485 C.3      546 DA      0.0000
    839 O3'       -6.6923    -4.6320  1777.5171 O.3      546 DA      0.0000
    840 C2'       -4.2945    -4.5591  1776.6490 C.3      546 DA      0.0000
    841 C1'       -3.6326    -3.5582  1777.5467 C.3      546 DA      0.0000
    842 N9        -2.2416    -3.2347  1777.2472 N.ar     546 DA      0.0000
    843 C8        -1.1704    -4.0820  1777.0524 C.ar     546 DA      0.0000
    844 N7        -0.0317    -3.4586  1776.8470 N.ar     546 DA      0.0000
    845 C5        -0.3614    -2.1193  1776.9215 C.ar     546 DA      0.0000
    846 C6         0.4164    -0.9473  1776.7880 C.ar     546 DA      0.0000
    847 N6         1.7235    -0.9499  1776.5448 N.pl3    546 DA      0.0000
    848 N1        -0.2713     0.2303  1776.9369 N.ar     546 DA      0.0000
    849 C2        -1.5939     0.2640  1777.1894 C.ar     546 DA      0.0000
    850 N3        -2.3911    -0.7997  1777.3282 N.ar     546 DA      0.0000
    851 C4        -1.7107    -1.9583  1777.1810 C.ar     546 DA      0.0000
    852 H5'       -5.3703    -7.0568  1779.4028 H        546 DA      0.0000
    853 H5''      -4.5412    -6.2097  1780.7368 H        546 DA      0.0000
    854 H4'       -5.5043    -4.4713  1779.5462 H        546 DA      0.0000
    855 H3'       -5.4280    -6.2461  1777.3135 H        546 DA      0.0000
    856 H2'       -3.5817    -5.3105  1776.3091 H        546 DA      0.0000
    857 H2''      -4.7574    -4.0601  1775.7976 H        546 DA      0.0000
    858 H1'       -4.2299    -2.6484  1777.6079 H        546 DA      0.0000
    859 H8        -1.2594    -5.1582  1777.0674 H        546 DA      0.0000
    860 H2        -2.0510     1.2374  1777.2884 H        546 DA      0.0000
    861 H61        2.2188    -0.1202  1776.8389 H        546 DA      0.0000
    862 H62        2.1886    -1.7269  1776.0976 H        546 DA      0.0000
    863 P         -7.5130    -4.6531  1776.1321 P.3      545 DT      0.0000
    864 OP1       -8.9832    -4.3736  1776.1902 O.co2    545 DT      0.0000
    865 OP2       -7.1376    -6.0063  1775.6195 O.co2    545 DT      0.0000
    866 O5'       -6.8107    -3.3151  1775.4290 O.3      545 DT      0.0000
    867 C5'       -6.6604    -2.2743  1776.4413 C.3      545 DT      0.0000
    868 C4'       -6.5589    -0.9479  1775.7583 C.3      545 DT      0.0000
    869 O4'       -5.2446    -0.5121  1775.5779 O.3      545 DT      0.0000
    870 C3'       -7.2351    -0.8954  1774.3971 C.3      545 DT      0.0000
    871 O3'       -7.8666     0.3627  1774.1298 O.3      545 DT      0.0000
    872 C2'       -6.0319    -1.2243  1773.5037 C.3      545 DT      0.0000
    873 C1'       -4.9393    -0.3949  1774.1438 C.3      545 DT      0.0000
    874 N1        -3.6102    -0.9918  1773.9138 N.am     545 DT      0.0000
    875 C2        -2.5347    -0.1296  1773.7922 C.2      545 DT      0.0000
    876 O2        -2.6903     1.0920  1773.8290 O.2      545 DT      0.0000
    877 N3        -1.2906    -0.6746  1773.6248 N.am     545 DT      0.0000
    878 C4        -1.0952    -2.0197  1773.5762 C.2      545 DT      0.0000
    879 O4         0.0873    -2.4357  1773.3907 O.2      545 DT      0.0000
    880 C5        -2.2119    -2.8892  1773.7247 C.2      545 DT      0.0000
    881 C7        -2.0329    -4.3878  1773.6725 C.3      545 DT      0.0000
    882 C6        -3.4194    -2.3414  1773.8976 C.2      545 DT      0.0000
    883 H5'       -7.5263    -2.2798  1777.1034 H        545 DT      0.0000
    884 H5''      -5.7558    -2.4567  1777.0213 H        545 DT      0.0000
    885 H4'       -7.0573    -0.2173  1776.3954 H        545 DT      0.0000
    886 H3'       -7.9718    -1.6955  1774.3251 H        545 DT      0.0000
    887 H2'       -5.7932    -2.2874  1773.5343 H        545 DT      0.0000
    888 H2''      -6.2124    -0.8993  1772.4791 H        545 DT      0.0000
    889 H1'       -4.9759     0.6421  1773.8098 H        545 DT      0.0000
    890 H3        -0.4942    -0.0600  1773.5346 H        545 DT      0.0000
    891 H6        -4.2726    -2.9905  1774.0290 H        545 DT      0.0000
    892 H71       -2.2551    -4.7460  1772.6674 H        545 DT      0.0000
    893 H72       -2.7108    -4.8593  1774.3841 H        545 DT      0.0000
    894 H73       -1.0040    -4.6400  1773.9291 H        545 DT      0.0000
    895 P         -8.5215     0.5230  1772.6399 P.3      544 DT      0.0000
    896 OP1      -10.0401     0.6346  1772.7879 O.co2    544 DT      0.0000
    897 OP2       -8.1731    -0.7753  1771.9701 O.co2    544 DT      0.0000
    898 O5'       -7.9014     1.7850  1771.9878 O.3      544 DT      0.0000
    899 C5'       -7.4575     2.9148  1772.7392 C.3      544 DT      0.0000
    900 C4'       -6.3378     3.5645  1771.9913 C.3      544 DT      0.0000
    901 O4'       -5.1013     2.9061  1771.9343 O.3      544 DT      0.0000
    902 C3'       -6.6018     3.9710  1770.5252 C.3      544 DT      0.0000
    903 O3'       -5.8286     5.1704  1770.4214 O.3      544 DT      0.0000
    904 C2'       -5.9610     2.8045  1769.7614 C.3      544 DT      0.0000
    905 C1'       -4.6603     2.7661  1770.5372 C.3      544 DT      0.0000
    906 N1        -3.8886     1.5245  1770.4310 N.am     544 DT      0.0000
    907 C2        -2.4960     1.6810  1770.4304 C.2      544 DT      0.0000
    908 O2        -1.9815     2.8004  1770.4734 O.2      544 DT      0.0000
    909 N3        -1.7434     0.5431  1770.3769 N.am     544 DT      0.0000
    910 C4        -2.2929    -0.7030  1770.3172 C.2      544 DT      0.0000
    911 O4        -1.5086    -1.6972  1770.2548 O.2      544 DT      0.0000
    912 C5        -3.7085    -0.8330  1770.3254 C.2      544 DT      0.0000
    913 C7        -4.3325    -2.2115  1770.2640 C.3      544 DT      0.0000
    914 C6        -4.4408     0.2827  1770.3919 C.2      544 DT      0.0000
    915 H5'       -8.2781     3.6218  1772.8614 H        544 DT      0.0000
    916 H5''      -7.1048     2.5892  1773.7178 H        544 DT      0.0000
    917 H4'       -6.1428     4.4984  1772.5185 H        544 DT      0.0000
    918 H3'       -7.6580     4.1129  1770.2965 H        544 DT      0.0000
    919 H2'       -5.8100     3.0306  1768.7059 H        544 DT      0.0000
    920 H2''      -6.5293     1.8838  1769.8930 H        544 DT      0.0000
    921 H1'       -4.0366     3.6154  1770.2581 H        544 DT      0.0000
    922 H3        -0.7370     0.6283  1770.3818 H        544 DT      0.0000
    923 H6        -5.5169     0.1942  1770.4156 H        544 DT      0.0000
    924 H71       -3.5463    -2.9650  1770.2152 H        544 DT      0.0000
    925 H72       -4.9622    -2.2858  1769.3774 H        544 DT      0.0000
    926 H73       -4.9385    -2.3760  1771.1549 H        544 DT      0.0000
    927 P         -5.8819     6.2163  1769.2752 P.3      543 DC      0.0000
    928 OP1       -6.0026     7.6144  1769.8843 O.co2    543 DC      0.0000
    929 OP2       -7.1182     5.9002  1768.4934 O.co2    543 DC      0.0000
    930 O5'       -4.4558     5.9448  1768.5358 O.3      543 DC      0.0000
    931 C5'       -3.2810     6.4370  1769.2603 C.3      543 DC      0.0000
    932 C4'       -2.2938     6.8749  1768.2098 C.3      543 DC      0.0000
    933 O4'       -1.3077     5.8994  1767.9645 O.3      543 DC      0.0000
    934 C3'       -2.8988     7.2096  1766.8454 C.3      543 DC      0.0000
    935 O3'       -2.2286     8.2540  1766.1361 O.3      543 DC      0.0000
    936 C2'       -2.8299     5.8384  1766.1592 C.3      543 DC      0.0000
    937 C1'       -1.5251     5.2622  1766.7058 C.3      543 DC      0.0000
    938 N1        -1.6884     3.7941  1766.8236 N.am     543 DC      0.0000
    939 C2        -0.5247     3.0265  1766.8409 C.2      543 DC      0.0000
    940 O2         0.5929     3.5562  1766.7722 O.2      543 DC      0.0000
    941 N3        -0.6709     1.6695  1766.9441 N.2      543 DC      0.0000
    942 C4        -1.8920     1.0779  1767.0149 C.2      543 DC      0.0000
    943 N4        -1.9829    -0.2499  1767.1168 N.pl3    543 DC      0.0000
    944 C5        -3.0638     1.8846  1766.9897 C.2      543 DC      0.0000
    945 C6        -2.9192     3.2175  1766.8961 C.2      543 DC      0.0000
    946 H5'       -3.5546     7.2789  1769.8963 H        543 DC      0.0000
    947 H5''      -2.8528     5.6369  1769.8642 H        543 DC      0.0000
    948 H4'       -1.7915     7.7692  1768.5786 H        543 DC      0.0000
    949 H3'       -3.9443     7.4867  1766.9795 H        543 DC      0.0000
    950 H2'       -2.7912     5.9418  1765.0749 H        543 DC      0.0000
    951 H2''      -3.6763     5.2186  1766.4552 H        543 DC      0.0000
    952 H1'       -0.7042     5.4915  1766.0264 H        543 DC      0.0000
    953 H5        -4.0451     1.4368  1767.0445 H        543 DC      0.0000
    954 H6        -3.7985     3.8445  1766.8780 H        543 DC      0.0000
    955 H41       -1.1449    -0.8134  1767.1375 H        543 DC      0.0000
    956 H42       -2.8897    -0.6912  1767.1732 H        543 DC      0.0000
    957 P         -2.0053     8.3234  1764.5041 P.3      542 DA      0.0000
    958 OP1       -1.7956     9.7707  1764.1146 O.co2    542 DA      0.0000
    959 OP2       -3.2274     7.6939  1763.9340 O.co2    542 DA      0.0000
    960 O5'       -0.6146     7.5572  1764.3385 O.3      542 DA      0.0000
    961 C5'        0.6124     8.2425  1764.8040 C.3      542 DA      0.0000
    962 C4'        1.6757     7.6039  1763.9267 C.3      542 DA      0.0000
    963 O4'        1.7433     6.1974  1764.1940 O.3      542 DA      0.0000
    964 C3'        1.3648     7.6984  1762.4223 C.3      542 DA      0.0000
    965 O3'        2.5163     7.4451  1761.6332 O.3      542 DA      0.0000
    966 C2'        0.4648     6.4631  1762.2348 C.3      542 DA      0.0000
    967 C1'        1.4140     5.4925  1762.9895 C.3      542 DA      0.0000
    968 N9         0.6397     4.2642  1763.1349 N.ar     542 DA      0.0000
    969 C8        -0.7318     4.1648  1763.2078 C.ar     542 DA      0.0000
    970 N7        -1.1581     2.9320  1763.3224 N.ar     542 DA      0.0000
    971 C5         0.0254     2.1722  1763.3160 C.ar     542 DA      0.0000
    972 C6         0.2325     0.7689  1763.4160 C.ar     542 DA      0.0000
    973 N6        -0.7562    -0.1213  1763.5388 N.pl3    542 DA      0.0000
    974 N1         1.5404     0.3891  1763.3808 N.ar     542 DA      0.0000
    975 C2         2.5442     1.2923  1763.2619 C.ar     542 DA      0.0000
    976 N3         2.4219     2.6196  1763.1705 N.ar     542 DA      0.0000
    977 C4         1.1276     2.9824  1763.1980 C.ar     542 DA      0.0000
    978 H5'        0.5538     9.3180  1764.6372 H        542 DA      0.0000
    979 H5''       0.7994     8.0254  1765.8556 H        542 DA      0.0000
    980 H4'        2.6432     8.0627  1764.1307 H        542 DA      0.0000
    981 H3'        0.8652     8.6288  1762.1527 H        542 DA      0.0000
    982 H2'       -0.5073     6.5679  1762.7165 H        542 DA      0.0000
    983 H2''       0.3660     6.1930  1761.1835 H        542 DA      0.0000
    984 H1'        2.3125     5.3069  1762.4011 H        542 DA      0.0000
    985 H8        -1.3910     5.0196  1763.1737 H        542 DA      0.0000
    986 H2         3.5490     0.8972  1763.2387 H        542 DA      0.0000
    987 H61       -1.7165     0.1906  1763.5635 H        542 DA      0.0000
    988 H62       -0.5433    -1.1063  1763.6069 H        542 DA      0.0000
    989 P          2.9574     8.4577  1760.4923 P.3      541 DC      0.0000
    990 OP1        3.7444     9.4976  1761.2726 O.co2    541 DC      0.0000
    991 OP2        1.8154     9.0253  1759.7667 O.co2    541 DC      0.0000
    992 O5'        3.8227     7.4561  1759.5164 O.3      541 DC      0.0000
    993 C5'        4.8824     6.6711  1760.1855 C.3      541 DC      0.0000
    994 C4'        4.9488     5.3115  1759.5414 C.3      541 DC      0.0000
    995 O4'        4.1345     4.3348  1760.1786 O.3      541 DC      0.0000
    996 C3'        4.5221     5.3278  1758.0636 C.3      541 DC      0.0000
    997 O3'        5.2146     4.3872  1757.2523 O.3      541 DC      0.0000
    998 C2'        3.0377     4.8643  1758.2293 C.3      541 DC      0.0000
    999 C1'        3.4400     3.6351  1759.1249 C.3      541 DC      0.0000
   1000 N1         2.2394     2.8773  1759.3627 N.am     541 DC      0.0000
   1001 C2         2.3583     1.5339  1759.6799 C.2      541 DC      0.0000
   1002 O2         3.3733     0.8424  1759.8204 O.2      541 DC      0.0000
   1003 N3         1.2106     0.8175  1759.8781 N.2      541 DC      0.0000
   1004 C4        -0.0278     1.3865  1759.7621 C.2      541 DC      0.0000
   1005 N4        -1.1261     0.6460  1759.9782 N.pl3    541 DC      0.0000
   1006 C5        -0.1338     2.7660  1759.4325 C.2      541 DC      0.0000
   1007 C6         1.0029     3.4455  1759.2408 C.2      541 DC      0.0000
   1008 H5'        5.8410     7.1779  1760.0740 H        541 DC      0.0000
   1009 H5''       4.6458     6.5639  1761.2441 H        541 DC      0.0000
   1010 H4'        5.9824     4.9685  1759.5882 H        541 DC      0.0000
   1011 H3'        4.5801     6.3323  1757.6446 H        541 DC      0.0000
   1012 H2'        2.4115     5.5913  1758.7464 H        541 DC      0.0000
   1013 H2''       2.6005     4.5515  1757.2810 H        541 DC      0.0000
   1014 H1'        4.1513     3.0145  1758.5799 H        541 DC      0.0000
   1015 H5        -1.0963     3.2473  1759.3404 H        541 DC      0.0000
   1016 H6         0.9400     4.4910  1758.9775 H        541 DC      0.0000
   1017 H41       -1.0373    -0.3309  1760.2187 H        541 DC      0.0000
   1018 H42       -2.0416     1.0656  1759.9003 H        541 DC      0.0000
   1019 P         -2.8625    -9.6014  1793.8515 P.3      551 DG      0.0000
   1020 OP1       -3.9116   -10.6507  1793.8499 O.co2    551 DG      0.0000
   1021 OP2       -3.2741    -8.5649  1794.9072 O.co2    551 DG      0.0000
   1022 O5'       -1.3585   -10.0890  1794.0299 O.3      551 DG      0.0000
   1023 C5'       -0.3294   -10.2445  1793.0299 C.3      551 DG      0.0000
   1024 C4'        0.9212    -9.5510  1793.5287 C.3      551 DG      0.0000
   1025 O4'        0.9846    -8.2049  1793.1095 O.3      551 DG      0.0000
   1026 C3'        1.1850    -9.5523  1795.0209 C.3      551 DG      0.0000
   1027 O3'        2.5012   -10.0829  1795.3329 O.3      551 DG      0.0000
   1028 C2'        1.0052    -8.1064  1795.4428 C.3      551 DG      0.0000
   1029 C1'        1.3190    -7.3294  1794.1871 C.3      551 DG      0.0000
   1030 N9         0.5383    -6.0793  1794.1581 N.ar     551 DG      0.0000
   1031 C8        -0.8032    -5.8833  1794.3869 C.ar     551 DG      0.0000
   1032 N7        -1.1853    -4.6294  1794.2972 N.ar     551 DG      0.0000
   1033 C5        -0.0131    -3.9479  1793.9802 C.ar     551 DG      0.0000
   1034 C6         0.2481    -2.5739  1793.7543 C.2      551 DG      0.0000
   1035 O6        -0.5463    -1.6333  1793.7756 O.2      551 DG      0.0000
   1036 N1         1.5513    -2.2675  1793.4728 N.am     551 DG      0.0000
   1037 C2         2.4889    -3.1582  1793.4121 C.2      551 DG      0.0000
   1038 N2         3.6040    -2.6126  1793.1154 N.pl3    551 DG      0.0000
   1039 N3         2.3317    -4.5321  1793.6209 N.2      551 DG      0.0000
   1040 C4         1.0520    -4.8247  1793.8935 C.ar     551 DG      0.0000
   1041 H5'       -0.1257   -11.3036  1792.8712 H        551 DG      0.0000
   1042 H5''      -0.6540    -9.7887  1792.0945 H        551 DG      0.0000
   1043 H4'        1.7651   -10.0608  1793.0640 H        551 DG      0.0000
   1044 H3'        0.4294   -10.1632  1795.5149 H        551 DG      0.0000
   1045 H2'       -0.0179    -7.9208  1795.7698 H        551 DG      0.0000
   1046 H2''       1.7096    -7.8507  1796.2343 H        551 DG      0.0000
   1047 H1'        2.3837    -7.0980  1794.1552 H        551 DG      0.0000
   1048 H8        -1.4832    -6.6894  1794.6200 H        551 DG      0.0000
   1049 H1         1.7933    -1.3015  1793.3044 H        551 DG      0.0000
   1050 H21        3.6551    -1.6143  1792.9710 H        551 DG      0.0000
   1051 H22        4.4352    -3.1792  1793.0249 H        551 DG      0.0000
   1052 P          3.1593    -9.9458  1796.7614 P.3      552 DT      0.0000
   1053 OP1        3.9026   -11.1525  1797.2731 O.co2    552 DT      0.0000
   1054 OP2        1.9298    -9.8252  1797.6801 O.co2    552 DT      0.0000
   1055 O5'        3.9481    -8.6117  1796.7900 O.3      552 DT      0.0000
   1056 C5'        5.3933    -8.5400  1796.6460 C.3      552 DT      0.0000
   1057 C4'        5.7096    -7.0601  1796.7035 C.3      552 DT      0.0000
   1058 O4'        4.5792    -6.2623  1796.4284 O.3      552 DT      0.0000
   1059 C3'        6.2359    -6.5374  1798.0162 C.3      552 DT      0.0000
   1060 O3'        7.5862    -6.0892  1797.8280 O.3      552 DT      0.0000
   1061 C2'        5.3110    -5.3854  1798.4085 C.3      552 DT      0.0000
   1062 C1'        4.7979    -4.9651  1797.0557 C.3      552 DT      0.0000
   1063 N1         3.4974    -4.3019  1797.1524 N.am     552 DT      0.0000
   1064 C2         3.4640    -2.9482  1796.9544 C.2      552 DT      0.0000
   1065 O2         4.4747    -2.2909  1796.7163 O.2      552 DT      0.0000
   1066 N3         2.2421    -2.3362  1797.0355 N.am     552 DT      0.0000
   1067 C4         1.0981    -3.0102  1797.2914 C.2      552 DT      0.0000
   1068 O4         0.0518    -2.3117  1797.3367 O.2      552 DT      0.0000
   1069 C5         1.1522    -4.4271  1797.4911 C.2      552 DT      0.0000
   1070 C7        -0.0895    -5.2095  1797.7710 C.3      552 DT      0.0000
   1071 C6         2.3516    -5.0173  1797.4096 C.2      552 DT      0.0000
   1072 H5'        5.8877    -9.0710  1797.4594 H        552 DT      0.0000
   1073 H5''       5.6979    -8.9540  1795.6848 H        552 DT      0.0000
   1074 H4'        6.4577    -6.8506  1795.9390 H        552 DT      0.0000
   1075 H3'        6.2021    -7.3208  1798.7733 H        552 DT      0.0000
   1076 H2'        4.5026    -5.7228  1799.0573 H        552 DT      0.0000
   1077 H2''       5.8739    -4.5786  1798.8777 H        552 DT      0.0000
   1078 H1'        5.5251    -4.3636  1796.5104 H        552 DT      0.0000
   1079 H3         2.1930    -1.3368  1796.8980 H        552 DT      0.0000
   1080 H6         2.4208    -6.0859  1797.5500 H        552 DT      0.0000
   1081 H71       -0.4048    -5.7278  1796.8655 H        552 DT      0.0000
   1082 H72       -0.8797    -4.5326  1798.0958 H        552 DT      0.0000
   1083 H73        0.1098    -5.9387  1798.5563 H        552 DT      0.0000
   1084 P          8.5425    -6.3946  1799.1080 P.3      553 DG      0.0000
   1085 OP1        9.8455    -6.7287  1798.3929 O.co2    553 DG      0.0000
   1086 OP2        7.9810    -7.5014  1799.8615 O.co2    553 DG      0.0000
   1087 O5'        8.4874    -4.8813  1799.7175 O.3      553 DG      0.0000
   1088 C5'        8.6975    -3.9068  1798.6269 C.3      553 DG      0.0000
   1089 C4'        8.3138    -2.5528  1799.1469 C.3      553 DG      0.0000
   1090 O4'        6.9771    -2.1680  1798.9664 O.3      553 DG      0.0000
   1091 C3'        8.6239    -2.3881  1800.6550 C.3      553 DG      0.0000
   1092 O3'        9.4448    -1.2057  1800.8138 O.3      553 DG      0.0000
   1093 C2'        7.2584    -2.3523  1801.3076 C.3      553 DG      0.0000
   1094 C1'        6.4147    -1.6877  1800.2260 C.3      553 DG      0.0000
   1095 N9         4.9902    -1.9953  1800.3955 N.ar     553 DG      0.0000
   1096 C8         4.4059    -3.1853  1800.7317 C.ar     553 DG      0.0000
   1097 N7         3.0944    -3.1470  1800.8175 N.ar     553 DG      0.0000
   1098 C5         2.7987    -1.8264  1800.4875 C.ar     553 DG      0.0000
   1099 C6         1.5505    -1.1470  1800.3931 C.2      553 DG      0.0000
   1100 O6         0.4136    -1.6031  1800.5854 O.2      553 DG      0.0000
   1101 N1         1.6514     0.1839  1800.0581 N.am     553 DG      0.0000
   1102 C2         2.8541     0.7815  1799.8343 C.2      553 DG      0.0000
   1103 N2         2.7611     2.0815  1799.5255 N.pl3    553 DG      0.0000
   1104 N3         4.0446     0.1901  1799.9053 N.2      553 DG      0.0000
   1105 C4         3.9483    -1.1101  1800.2319 C.ar     553 DG      0.0000
   1106 H5'        9.7453    -3.9059  1798.3264 H        553 DG      0.0000
   1107 H5''       8.0696    -4.1660  1797.7745 H        553 DG      0.0000
   1108 H4'        8.9271    -1.8245  1798.6164 H        553 DG      0.0000
   1109 H3'        9.1725    -3.2607  1801.0097 H        553 DG      0.0000
   1110 H2'        6.8986    -3.3567  1801.5305 H        553 DG      0.0000
   1111 H2''       7.2787    -1.7412  1802.2100 H        553 DG      0.0000
   1112 H1'        6.5521    -0.6081  1800.2849 H        553 DG      0.0000
   1113 H8         4.9762    -4.0845  1800.9124 H        553 DG      0.0000
   1114 H1         0.8082     0.7338  1799.9757 H        553 DG      0.0000
   1115 H21        1.8551     2.5251  1799.4753 H        553 DG      0.0000
   1116 H22        3.5970     2.6183  1799.3428 H        553 DG      0.0000
   1117 P         10.0397    -0.8031  1802.2023 P.3      554 DA      0.0000
   1118 OP1       11.3724    -1.3784  1802.5576 O.co2    554 DA      0.0000
   1119 OP2        8.9614    -1.5164  1803.0980 O.co2    554 DA      0.0000
   1120 O5'        9.7816     0.7416  1802.4514 O.3      554 DA      0.0000
   1121 C5'        9.5548     1.7159  1801.4223 C.3      554 DA      0.0000
   1122 C4'        8.3616     2.5295  1801.8967 C.3      554 DA      0.0000
   1123 O4'        7.1783     1.7652  1801.8063 O.3      554 DA      0.0000
   1124 C3'        8.4347     3.0676  1803.3257 C.3      554 DA      0.0000
   1125 O3'        8.0656     4.4612  1803.3780 O.3      554 DA      0.0000
   1126 C2'        7.4435     2.1574  1804.0612 C.3      554 DA      0.0000
   1127 C1'        6.3761     2.0409  1802.9836 C.3      554 DA      0.0000
   1128 N9         5.4219     0.9512  1803.2120 N.ar     554 DA      0.0000
   1129 C8         5.6437    -0.3794  1803.4277 C.ar     554 DA      0.0000
   1130 N7         4.5455    -1.0826  1803.5927 N.ar     554 DA      0.0000
   1131 C5         3.5290    -0.1497  1803.4525 C.ar     554 DA      0.0000
   1132 C6         2.1240    -0.2824  1803.5005 C.ar     554 DA      0.0000
   1133 N6         1.4813    -1.4319  1803.7202 N.pl3    554 DA      0.0000
   1134 N1         1.4228     0.8747  1803.3107 N.ar     554 DA      0.0000
   1135 C2         2.0546     2.0512  1803.0929 C.ar     554 DA      0.0000
   1136 N3         3.3706     2.2514  1803.0346 N.ar     554 DA      0.0000
   1137 C4         4.0448     1.1021  1803.2215 C.ar     554 DA      0.0000
   1138 H5'        9.3302     1.2255  1800.4751 H        554 DA      0.0000
   1139 H5''      10.4286     2.3586  1801.3145 H        554 DA      0.0000
   1140 H4'        8.2559     3.3830  1801.2269 H        554 DA      0.0000
   1141 H3'        9.4387     2.9303  1803.7271 H        554 DA      0.0000
   1142 H2'        7.8825     1.1904  1804.3066 H        554 DA      0.0000
   1143 H2''       7.0492     2.6463  1804.9520 H        554 DA      0.0000
   1144 H1'        5.8488     2.9880  1802.8690 H        554 DA      0.0000
   1145 H8         6.6318    -0.8141  1803.4598 H        554 DA      0.0000
   1146 H2         1.4267     2.9185  1802.9515 H        554 DA      0.0000
   1147 H61        1.8891    -2.3508  1803.6228 H        554 DA      0.0000
   1148 H62        0.4866    -1.4651  1803.5487 H        554 DA      0.0000
   1149 P          8.6556     5.4845  1804.5194 P.3      555 DA      0.0000
   1150 OP1        9.4390     6.5876  1803.8524 O.co2    555 DA      0.0000
   1151 OP2        9.4499     4.5568  1805.3504 O.co2    555 DA      0.0000
   1152 O5'        7.3355     6.2059  1805.0503 O.3      555 DA      0.0000
   1153 C5'        6.4851     7.0013  1804.2259 C.3      555 DA      0.0000
   1154 C4'        5.0651     6.8711  1804.7482 C.3      555 DA      0.0000
   1155 O4'        4.6554     5.5330  1804.7764 O.3      555 DA      0.0000
   1156 C3'        4.7653     7.4606  1806.1156 C.3      555 DA      0.0000
   1157 O3'        3.8209     8.5281  1806.0377 O.3      555 DA      0.0000
   1158 C2'        4.3153     6.2511  1806.9443 C.3      555 DA      0.0000
   1159 C1'        3.8194     5.2739  1805.9505 C.3      555 DA      0.0000
   1160 N9         3.9077     3.8270  1806.2185 N.ar     555 DA      0.0000
   1161 C8         5.0103     3.0156  1806.3337 C.ar     555 DA      0.0000
   1162 N7         4.7270     1.7458  1806.5030 N.ar     555 DA      0.0000
   1163 C5         3.3368     1.7085  1806.4660 C.ar     555 DA      0.0000
   1164 C6         2.4141     0.6306  1806.5865 C.ar     555 DA      0.0000
   1165 N6         2.7373    -0.6423  1806.7781 N.pl3    555 DA      0.0000
   1166 N1         1.0882     0.9713  1806.4883 N.ar     555 DA      0.0000
   1167 C2         0.7168     2.2709  1806.2992 C.ar     555 DA      0.0000
   1168 N3         1.5228     3.3210  1806.1914 N.ar     555 DA      0.0000
   1169 C4         2.8215     2.9709  1806.2832 C.ar     555 DA      0.0000
   1170 H5'        6.5336     6.6480  1803.1959 H        555 DA      0.0000
   1171 H5''       6.7993     8.0440  1804.2719 H        555 DA      0.0000
   1172 H4'        4.4190     7.3835  1804.0355 H        555 DA      0.0000
   1173 H3'        5.6926     7.8467  1806.5388 H        555 DA      0.0000
   1174 H2'        5.1535     5.8367  1807.5046 H        555 DA      0.0000
   1175 H2''       3.5128     6.5376  1807.6239 H        555 DA      0.0000
   1176 H1'        2.7866     5.5205  1805.7044 H        555 DA      0.0000
   1177 H8         6.0222     3.3903  1806.2889 H        555 DA      0.0000
   1178 H2        -0.3432     2.4657  1806.2300 H        555 DA      0.0000
   1179 H61        3.6511    -0.9230  1807.1043 H        555 DA      0.0000
   1180 H62        2.0460    -1.3545  1806.5913 H        555 DA      0.0000
   1181 P          3.8000     9.8432  1806.9939 P.3      556 DT      0.0000
   1182 OP1        3.5103    11.1099  1806.1966 O.co2    556 DT      0.0000
   1183 OP2        4.9916     9.8980  1807.8145 O.co2    556 DT      0.0000
   1184 O5'        2.3857     9.6362  1807.8077 O.3      556 DT      0.0000
   1185 C5'        1.3515     9.1244  1806.8626 C.3      556 DT      0.0000
   1186 C4'        0.6151     8.0708  1807.6503 C.3      556 DT      0.0000
   1187 O4'        1.3555     6.8864  1807.8423 O.3      556 DT      0.0000
   1188 C3'        0.2504     8.5520  1809.0669 C.3      556 DT      0.0000
   1189 O3'       -1.0919     9.0016  1809.0685 O.3      556 DT      0.0000
   1190 C2'        0.5250     7.3478  1809.9641 C.3      556 DT      0.0000
   1191 C1'        0.6673     6.2390  1808.9995 C.3      556 DT      0.0000
   1192 N1         1.4451     5.0581  1809.3393 N.am     556 DT      0.0000
   1193 C2         0.7457     3.8632  1809.4772 C.2      556 DT      0.0000
   1194 O2        -0.4754     3.8589  1809.3892 O.2      556 DT      0.0000
   1195 N3         1.4543     2.7278  1809.7312 N.am     556 DT      0.0000
   1196 C4         2.8145     2.7186  1809.8513 C.2      556 DT      0.0000
   1197 O4         3.4024     1.6194  1810.1065 O.2      556 DT      0.0000
   1198 C5         3.5155     3.9575  1809.6798 C.2      556 DT      0.0000
   1199 C7         5.0160     3.9985  1809.7673 C.3      556 DT      0.0000
   1200 C6         2.8120     5.0740  1809.4240 C.2      556 DT      0.0000
   1201 H5'        0.6749     9.9241  1806.5609 H        556 DT      0.0000
   1202 H5''       1.8257     8.6799  1805.9875 H        556 DT      0.0000
   1203 H4'       -0.3050     7.8224  1807.1211 H        556 DT      0.0000
   1204 H3'        0.9082     9.3733  1809.3512 H        556 DT      0.0000
   1205 H2'        1.4413     7.4878  1810.5375 H        556 DT      0.0000
   1206 H2''      -0.3186     7.1680  1810.6305 H        556 DT      0.0000
   1207 H1'       -0.3264     5.9228  1808.6822 H        556 DT      0.0000
   1208 H3         0.9530     1.8571  1809.8349 H        556 DT      0.0000
   1209 H6         3.3377     6.0067  1809.2818 H        556 DT      0.0000
   1210 H71        5.3955     2.9991  1809.9803 H        556 DT      0.0000
   1211 H72        5.4255     4.3480  1808.8195 H        556 DT      0.0000
   1212 H73        5.3150     4.6784  1810.5651 H        556 DT      0.0000
   1213 P         -1.8648     9.7683  1810.1752 P.3      557 DT      0.0000
   1214 OP1       -3.0658    10.5346  1809.5631 O.co2    557 DT      0.0000
   1215 OP2       -0.8851    10.6905  1810.8051 O.co2    557 DT      0.0000
   1216 O5'       -2.5494     8.6173  1811.0575 O.3      557 DT      0.0000
   1217 C5'       -3.6164     7.9350  1810.3457 C.3      557 DT      0.0000
   1218 C4'       -3.8869     6.6358  1811.0219 C.3      557 DT      0.0000
   1219 O4'       -2.7858     5.7360  1810.9985 O.3      557 DT      0.0000
   1220 C3'       -4.3233     6.7630  1812.4885 C.3      557 DT      0.0000
   1221 O3'       -5.4085     5.8941  1812.7525 O.3      557 DT      0.0000
   1222 C2'       -3.0589     6.2602  1813.2248 C.3      557 DT      0.0000
   1223 C1'       -2.7584     5.0816  1812.3213 C.3      557 DT      0.0000
   1224 N1        -1.4566     4.5136  1812.6190 N.am     557 DT      0.0000
   1225 C2        -1.3341     3.1346  1812.6738 C.2      557 DT      0.0000
   1226 O2        -2.3334     2.4394  1812.4854 O.2      557 DT      0.0000
   1227 N3        -0.1027     2.6053  1812.9397 N.am     557 DT      0.0000
   1228 C4         0.9932     3.3855  1813.1467 C.2      557 DT      0.0000
   1229 O4         2.1038     2.8242  1813.3700 O.2      557 DT      0.0000
   1230 C5         0.8563     4.8028  1813.0817 C.2      557 DT      0.0000
   1231 C7         2.0181     5.7297  1813.2916 C.3      557 DT      0.0000
   1232 C6        -0.3603     5.3058  1812.8205 C.2      557 DT      0.0000
   1233 H5'       -4.5168     8.5492  1810.3581 H        557 DT      0.0000
   1234 H5''      -3.3113     7.7542  1809.3150 H        557 DT      0.0000
   1235 H4'       -4.7049     6.1572  1810.4834 H        557 DT      0.0000
   1236 H3'       -4.5594     7.7943  1812.7509 H        557 DT      0.0000
   1237 H2'       -2.2571     6.9985  1813.2236 H        557 DT      0.0000
   1238 H2''      -3.2942     5.9329  1814.2376 H        557 DT      0.0000
   1239 H1'       -3.5392     4.3249  1812.3969 H        557 DT      0.0000
   1240 H3        -0.0024     1.6012  1812.9841 H        557 DT      0.0000
   1241 H6        -0.4781     6.3780  1812.7675 H        557 DT      0.0000
   1242 H71        2.9173     5.1467  1813.4905 H        557 DT      0.0000
   1243 H72        2.1673     6.3332  1812.3963 H        557 DT      0.0000
   1244 H73        1.8133     6.3826  1814.1400 H        557 DT      0.0000
   1245 P         -6.8489     6.0301  1813.3605 P.3      558 DC      0.0000
   1246 OP1       -7.9162     5.8866  1812.2926 O.co2    558 DC      0.0000
   1247 OP2       -6.8430     7.3081  1814.0955 O.co2    558 DC      0.0000
   1248 O5'       -6.8307     4.6238  1814.1865 O.3      558 DC      0.0000
   1249 C5'       -6.4576     3.6283  1813.1643 C.3      558 DC      0.0000
   1250 C4'       -6.3466     2.3020  1813.8608 C.3      558 DC      0.0000
   1251 O4'       -5.0249     1.9342  1814.1077 O.3      558 DC      0.0000
   1252 C3'       -7.1475     2.1801  1815.1522 C.3      558 DC      0.0000
   1253 O3'       -8.0473     1.0825  1815.0725 O.3      558 DC      0.0000
   1254 C2'       -6.0344     2.1295  1816.2010 C.3      558 DC      0.0000
   1255 C1'       -4.8892     1.5080  1815.5046 C.3      558 DC      0.0000
   1256 N1        -3.5526     2.0112  1815.8367 N.am     558 DC      0.0000
   1257 C2        -2.5842     1.0430  1816.0925 C.2      558 DC      0.0000
   1258 O2        -2.8634    -0.1599  1816.0970 O.2      558 DC      0.0000
   1259 N3        -1.3111     1.4785  1816.3663 N.2      558 DC      0.0000
   1260 C4        -0.9947     2.8052  1816.3564 C.2      558 DC      0.0000
   1261 N4         0.2642     3.1266  1816.6333 N.pl3    558 DC      0.0000
   1262 C5        -1.9834     3.7746  1816.0784 C.2      558 DC      0.0000
   1263 C6        -3.2294     3.3310  1815.8136 C.2      558 DC      0.0000
   1264 H5'       -7.2241     3.5814  1812.3906 H        558 DC      0.0000
   1265 H5''      -5.4987     3.8949  1812.7201 H        558 DC      0.0000
   1266 H4'       -6.7514     1.5579  1813.1748 H        558 DC      0.0000
   1267 H3'       -7.7226     3.0949  1815.2955 H        558 DC      0.0000
   1268 H2'       -5.7792     3.1339  1816.5389 H        558 DC      0.0000
   1269 H2''      -6.3408     1.5137  1817.0465 H        558 DC      0.0000
   1270 H1'       -4.9273     0.4217  1815.5855 H        558 DC      0.0000
   1271 H5        -1.7511     4.8293  1816.0778 H        558 DC      0.0000
   1272 H6        -3.9982     4.0508  1815.5746 H        558 DC      0.0000
   1273 H41        0.9384     2.4015  1816.8325 H        558 DC      0.0000
   1274 H42        0.5470     4.0961  1816.6446 H        558 DC      0.0000
   1275 P         -9.3360     0.8248  1816.0246 P.3      559 DA      0.0000
   1276 OP1      -10.3110    -0.0234  1815.2309 O.co2    559 DA      0.0000
   1277 OP2       -9.9123     2.1402  1816.3701 O.co2    559 DA      0.0000
   1278 O5'       -8.7170     0.0231  1817.3216 O.3      559 DA      0.0000
   1279 C5'       -7.9223    -1.1662  1817.0264 C.3      559 DA      0.0000
   1280 C4'       -7.3437    -1.7321  1818.2817 C.3      559 DA      0.0000
   1281 O4'       -5.9741    -1.3967  1818.5238 O.3      559 DA      0.0000
   1282 C3'       -8.0228    -1.2846  1819.5869 C.3      559 DA      0.0000
   1283 O3'       -7.6895    -2.2181  1820.6168 O.3      559 DA      0.0000
   1284 C2'       -7.2918     0.0558  1819.8015 C.3      559 DA      0.0000
   1285 C1'       -5.8712    -0.4889  1819.6182 C.3      559 DA      0.0000
   1286 N9        -4.9408     0.6232  1819.5239 N.ar     559 DA      0.0000
   1287 C8        -5.1675     1.9667  1819.4080 C.ar     559 DA      0.0000
   1288 N7        -4.0801     2.7165  1819.3895 N.ar     559 DA      0.0000
   1289 C5        -3.0542     1.7882  1819.4970 C.ar     559 DA      0.0000
   1290 C6        -1.6451     1.9307  1819.5315 C.ar     559 DA      0.0000
   1291 N6        -1.0065     3.0838  1819.4463 N.pl3    559 DA      0.0000
   1292 N1        -0.9271     0.7768  1819.6641 N.ar     559 DA      0.0000
   1293 C2        -1.5483    -0.4411  1819.7443 C.ar     559 DA      0.0000
   1294 N3        -2.8616    -0.6549  1819.7144 N.ar     559 DA      0.0000
   1295 C4        -3.5585     0.5013  1819.5914 C.ar     559 DA      0.0000
   1296 H5'       -8.5588    -1.9151  1816.5552 H        559 DA      0.0000
   1297 H5''      -7.1142    -0.8998  1816.3451 H        559 DA      0.0000
   1298 H4'       -7.4162    -2.8180  1818.2228 H        559 DA      0.0000
   1299 H3'       -9.0994    -1.1577  1819.4732 H        559 DA      0.0000
   1300 H2'       -7.5546     0.8009  1819.0507 H        559 DA      0.0000
   1301 H2''      -7.4454     0.4362  1820.8114 H        559 DA      0.0000
   1302 H1'       -5.6159    -1.0645  1820.5078 H        559 DA      0.0000
   1303 H8        -6.1613     2.3837  1819.3371 H        559 DA      0.0000
   1304 H2        -0.9131    -1.3092  1819.8407 H        559 DA      0.0000
   1305 H61       -0.0569     3.3772  1819.6263 H        559 DA      0.0000
   1306 H62       -1.5986     3.8391  1819.1315 H        559 DA      0.0000
   1307 P         -8.4579    -3.6146  1820.7573 P.3      560 DC      0.0000
   1308 OP1       -9.1685    -4.0220  1819.5122 O.co2    560 DC      0.0000
   1309 OP2       -9.3943    -3.3479  1821.9002 O.co2    560 DC      0.0000
   1310 O5'       -7.2883    -4.6473  1821.0404 O.3      560 DC      0.0000
   1311 C5'       -6.4890    -5.2030  1819.9527 C.3      560 DC      0.0000
   1312 C4'       -5.1542    -5.4698  1820.6577 C.3      560 DC      0.0000
   1313 O4'       -4.5864    -4.2188  1820.9697 O.3      560 DC      0.0000
   1314 C3'       -5.2932    -6.2411  1821.9676 C.3      560 DC      0.0000
   1315 O3'       -4.4263    -7.3958  1822.0355 O.3      560 DC      0.0000
   1316 C2'       -4.9944    -5.1926  1823.0498 C.3      560 DC      0.0000
   1317 C1'       -4.0347    -4.2997  1822.3736 C.3      560 DC      0.0000
   1318 N1        -3.9291    -2.8863  1822.7264 N.am     560 DC      0.0000
   1319 C2        -2.6373    -2.3642  1822.6995 C.2      560 DC      0.0000
   1320 O2        -1.6484    -3.0562  1822.4926 O.2      560 DC      0.0000
   1321 N3        -2.4950    -1.0355  1822.9527 N.2      560 DC      0.0000
   1322 C4        -3.5530    -0.2217  1823.1860 C.2      560 DC      0.0000
   1323 N4        -3.2864     1.0624  1823.4170 N.pl3    560 DC      0.0000
   1324 C5        -4.8676    -0.7638  1823.1926 C.2      560 DC      0.0000
   1325 C6        -5.0003    -2.0758  1822.9431 C.2      560 DC      0.0000
   1326 H5'       -6.9267    -6.1240  1819.5679 H        560 DC      0.0000
   1327 H5''      -6.3638    -4.4722  1819.1537 H        560 DC      0.0000
   1328 H4'       -4.4902    -6.0126  1819.9850 H        560 DC      0.0000
   1329 H3'       -6.3268    -6.5708  1822.0735 H        560 DC      0.0000
   1330 H2'       -5.8978    -4.6545  1823.3368 H        560 DC      0.0000
   1331 H2''      -4.5344    -5.6607  1823.9201 H        560 DC      0.0000
   1332 H1'       -3.0451    -4.7564  1822.3604 H        560 DC      0.0000
   1333 H5        -5.7282    -0.1422  1823.3911 H        560 DC      0.0000
   1334 H6        -5.9917    -2.5030  1822.9134 H        560 DC      0.0000
   1335 H41       -2.3310     1.3898  1823.4059 H        560 DC      0.0000
   1336 H42       -4.0397     1.7090  1823.6031 H        560 DC      0.0000
   1337 P          5.4659     6.4939  1824.9950 P.3      560 DG      0.0000
   1338 OP1        6.3699     7.6719  1825.1738 O.co2    560 DG      0.0000
   1339 OP2        4.4180     6.7054  1823.9102 O.co2    560 DG      0.0000
   1340 O5'        6.3731     5.1363  1824.7878 O.3      560 DG      0.0000
   1341 C5'        6.4681     4.1667  1825.8835 C.3      560 DG      0.0000
   1342 C4'        6.4642     2.7777  1825.2493 C.3      560 DG      0.0000
   1343 O4'        5.1702     2.2478  1825.1534 O.3      560 DG      0.0000
   1344 C3'        7.0551     2.7238  1823.8429 C.3      560 DG      0.0000
   1345 O3'        7.8553     1.5489  1823.5759 O.3      560 DG      0.0000
   1346 C2'        5.8089     2.7744  1822.9406 C.3      560 DG      0.0000
   1347 C1'        4.8282     1.9567  1823.7645 C.3      560 DG      0.0000
   1348 N9         3.4389     2.3622  1823.4911 N.ar     560 DG      0.0000
   1349 C8         2.9454     3.6356  1823.3345 C.ar     560 DG      0.0000
   1350 N7         1.6581     3.6831  1823.1161 N.ar     560 DG      0.0000
   1351 C5         1.2704     2.3486  1823.1409 C.ar     560 DG      0.0000
   1352 C6        -0.0030     1.7390  1822.9844 C.2      560 DG      0.0000
   1353 O6        -1.0812     2.3174  1822.7876 O.2      560 DG      0.0000
   1354 N1         0.0119     0.3687  1823.0713 N.am     560 DG      0.0000
   1355 C2         1.1472    -0.3385  1823.2920 C.2      560 DG      0.0000
   1356 N2         1.0071    -1.6598  1823.3553 N.pl3    560 DG      0.0000
   1357 N3         2.3689     0.1853  1823.4497 N.2      560 DG      0.0000
   1358 C4         2.3536     1.5298  1823.3664 C.ar     560 DG      0.0000
   1359 H5'        7.3918     4.3211  1826.4413 H        560 DG      0.0000
   1360 H5''       5.6110     4.2732  1826.5485 H        560 DG      0.0000
   1361 H4'        7.0516     2.1162  1825.8860 H        560 DG      0.0000
   1362 H3'        7.6584     3.6155  1823.6724 H        560 DG      0.0000
   1363 H2'        5.4583     3.7966  1822.7979 H        560 DG      0.0000
   1364 H2''       6.0047     2.2943  1821.9819 H        560 DG      0.0000
   1365 H1'        4.9579     0.8940  1823.5592 H        560 DG      0.0000
   1366 H8         3.5661     4.5178  1823.3872 H        560 DG      0.0000
   1367 H1        -0.8585    -0.1328  1822.9665 H        560 DG      0.0000
   1368 H21        0.0945    -2.0770  1823.2403 H        560 DG      0.0000
   1369 H22        1.8134    -2.2458  1823.5185 H        560 DG      0.0000
   1370 P          7.8711     1.0521  1822.0524 P.3      559 DT      0.0000
   1371 OP1        9.1348     0.3342  1821.6615 O.co2    559 DT      0.0000
   1372 OP2        7.7544     2.3547  1821.3519 O.co2    559 DT      0.0000
   1373 O5'        6.6154     0.0657  1821.9215 O.3      559 DT      0.0000
   1374 C5'        6.8602    -1.3522  1822.1892 C.3      559 DT      0.0000
   1375 C4'        5.8333    -2.1661  1821.4321 C.3      559 DT      0.0000
   1376 O4'        4.5557    -1.5551  1821.4048 O.3      559 DT      0.0000
   1377 C3'        6.2114    -2.3984  1819.9774 C.3      559 DT      0.0000
   1378 O3'        5.8665    -3.7104  1819.4823 O.3      559 DT      0.0000
   1379 C2'        5.4543    -1.3064  1819.2546 C.3      559 DT      0.0000
   1380 C1'        4.1497    -1.3527  1820.0327 C.3      559 DT      0.0000
   1381 N1         3.5191    -0.0320  1819.8814 N.am     559 DT      0.0000
   1382 C2         2.1325     0.0028  1819.9881 C.2      559 DT      0.0000
   1383 O2         1.4975    -1.0291  1820.1779 O.2      559 DT      0.0000
   1384 N3         1.5277     1.2227  1819.8680 N.am     559 DT      0.0000
   1385 C4         2.2415     2.3630  1819.6504 C.2      559 DT      0.0000
   1386 O4         1.5889     3.4545  1819.5528 O.2      559 DT      0.0000
   1387 C5         3.6601     2.2957  1819.5440 C.2      559 DT      0.0000
   1388 C7         4.4577     3.5474  1819.3151 C.3      559 DT      0.0000
   1389 C6         4.2455     1.1015  1819.6658 C.2      559 DT      0.0000
   1390 H5'        7.8622    -1.6219  1821.8555 H        559 DT      0.0000
   1391 H5''       6.7655    -1.5452  1823.2578 H        559 DT      0.0000
   1392 H4'        5.7383    -3.1361  1821.9201 H        559 DT      0.0000
   1393 H3'        7.2822    -2.2368  1819.8534 H        559 DT      0.0000
   1394 H2'        5.9487    -0.3393  1819.3461 H        559 DT      0.0000
   1395 H2''       5.2953    -1.5672  1818.2082 H        559 DT      0.0000
   1396 H1'        3.4987    -2.1536  1819.6820 H        559 DT      0.0000
   1397 H3         0.5221     1.2808  1819.9426 H        559 DT      0.0000
   1398 H6         5.3207     1.0320  1819.5916 H        559 DT      0.0000
   1399 H71        3.7834     4.4010  1819.2464 H        559 DT      0.0000
   1400 H72        5.1475     3.6955  1820.1459 H        559 DT      0.0000
   1401 H73        5.0217     3.4543  1818.3869 H        559 DT      0.0000
   1402 P          7.2058    -4.3063  1818.7039 P.3      558 DG      0.0000
   1403 OP1        8.0680    -5.1606  1819.5752 O.co2    558 DG      0.0000
   1404 OP2        7.8158    -3.0154  1818.2984 O.co2    558 DG      0.0000
   1405 O5'        6.5140    -5.2591  1817.6231 O.3      558 DG      0.0000
   1406 C5'        6.0238    -6.5566  1818.0466 C.3      558 DG      0.0000
   1407 C4'        4.5679    -6.5878  1817.5988 C.3      558 DG      0.0000
   1408 O4'        3.9608    -5.3402  1817.8696 O.3      558 DG      0.0000
   1409 C3'        4.3719    -6.8797  1816.1111 C.3      558 DG      0.0000
   1410 O3'        3.5332    -8.0018  1815.9026 O.3      558 DG      0.0000
   1411 C2'        3.8664    -5.5692  1815.5344 C.3      558 DG      0.0000
   1412 C1'        3.1927    -4.9206  1816.7205 C.3      558 DG      0.0000
   1413 N9         3.2071    -3.4605  1816.5970 N.ar     558 DG      0.0000
   1414 C8         4.2827    -2.6333  1816.4381 C.ar     558 DG      0.0000
   1415 N7         3.9652    -1.3640  1816.3601 N.ar     558 DG      0.0000
   1416 C5         2.5803    -1.3528  1816.4976 C.ar     558 DG      0.0000
   1417 C6         1.6380    -0.2907  1816.5071 C.2      558 DG      0.0000
   1418 O6         1.8734     0.9093  1816.4080 O.2      558 DG      0.0000
   1419 N1         0.3387    -0.6850  1816.6560 N.am     558 DG      0.0000
   1420 C2        -0.0127    -2.0065  1816.7889 C.2      558 DG      0.0000
   1421 N2        -1.3162    -2.2518  1816.9246 N.pl3    558 DG      0.0000
   1422 N3         0.8213    -3.0514  1816.7932 N.2      558 DG      0.0000
   1423 C4         2.1051    -2.6452  1816.6425 C.ar     558 DG      0.0000
   1424 H5'        6.5897    -7.3557  1817.5678 H        558 DG      0.0000
   1425 H5''       6.0866    -6.6477  1819.1309 H        558 DG      0.0000
   1426 H4'        4.0477    -7.3553  1818.1718 H        558 DG      0.0000
   1427 H3'        5.3464    -7.0939  1815.6725 H        558 DG      0.0000
   1428 H2'        4.6907    -4.9575  1815.1680 H        558 DG      0.0000
   1429 H2''       3.1446    -5.7546  1814.7389 H        558 DG      0.0000
   1430 H1'        2.1664    -5.2773  1816.8076 H        558 DG      0.0000
   1431 H8         5.2999    -2.9919  1816.3820 H        558 DG      0.0000
   1432 H1        -0.3869     0.0175  1816.6689 H        558 DG      0.0000
   1433 H21       -1.9765    -1.4875  1816.9255 H        558 DG      0.0000
   1434 H22       -1.6434    -3.2018  1817.0263 H        558 DG      0.0000
   1435 P          2.2431    -8.2887  1815.0363 P.3      557 DA      0.0000
   1436 OP1        1.2699    -9.1806  1815.8177 O.co2    557 DA      0.0000
   1437 OP2        2.7303    -8.9854  1813.8436 O.co2    557 DA      0.0000
   1438 O5'        1.4849    -6.8574  1814.8615 O.3      557 DA      0.0000
   1439 C5'        0.6167    -6.5572  1816.0180 C.3      557 DA      0.0000
   1440 C4'       -0.7950    -6.4891  1815.4902 C.3      557 DA      0.0000
   1441 O4'       -1.2227    -5.1693  1815.2679 O.3      557 DA      0.0000
   1442 C3'       -0.9650    -7.2028  1814.1497 C.3      557 DA      0.0000
   1443 O3'       -2.1660    -7.9331  1814.0745 O.3      557 DA      0.0000
   1444 C2'       -0.7603    -6.0760  1813.1531 C.3      557 DA      0.0000
   1445 C1'       -1.0940    -4.8015  1813.8769 C.3      557 DA      0.0000
   1446 N9        -0.0725    -3.7647  1813.6514 N.ar     557 DA      0.0000
   1447 C8         1.2850    -3.9122  1813.4651 C.ar     557 DA      0.0000
   1448 N7         1.9303    -2.7854  1813.2692 N.ar     557 DA      0.0000
   1449 C5         0.9290    -1.8263  1813.3560 C.ar     557 DA      0.0000
   1450 C6         0.9721    -0.4165  1813.2504 C.ar     557 DA      0.0000
   1451 N6         2.0799     0.2716  1813.0379 N.pl3    557 DA      0.0000
   1452 N1        -0.2201     0.2298  1813.3741 N.ar     557 DA      0.0000
   1453 C2        -1.3802    -0.4552  1813.5986 C.ar     557 DA      0.0000
   1454 N3        -1.4884    -1.7771  1813.7145 N.ar     557 DA      0.0000
   1455 C4        -0.2972    -2.4084  1813.5784 C.ar     557 DA      0.0000
   1456 H5'        0.7008    -7.3455  1816.7660 H        557 DA      0.0000
   1457 H5''       0.8970    -5.5986  1816.4546 H        557 DA      0.0000
   1458 H4'       -1.4611    -6.9526  1816.2178 H        557 DA      0.0000
   1459 H3'       -0.1385    -7.9045  1814.0365 H        557 DA      0.0000
   1460 H2'       -1.4212    -6.2065  1812.2962 H        557 DA      0.0000
   1461 H2''       0.2781    -6.0555  1812.8225 H        557 DA      0.0000
   1462 H1'       -2.0554    -4.4335  1813.5187 H        557 DA      0.0000
   1463 H8         1.7768    -4.8737  1813.4790 H        557 DA      0.0000
   1464 H2        -2.2866     0.1247  1813.6899 H        557 DA      0.0000
   1465 H61        2.1703     1.2269  1813.3533 H        557 DA      0.0000
   1466 H62        2.8499    -0.1653  1812.5517 H        557 DA      0.0000
   1467 P         -3.1906    -8.1420  1812.8899 P.3      556 DA      0.0000
   1468 OP1       -4.4944    -8.8151  1813.4098 O.co2    556 DA      0.0000
   1469 OP2       -2.4968    -9.0830  1811.9562 O.co2    556 DA      0.0000
   1470 O5'       -3.6265    -6.7140  1812.3872 O.3      556 DA      0.0000
   1471 C5'       -4.8679    -6.1375  1812.8430 C.3      556 DA      0.0000
   1472 C4'       -5.0204    -4.8056  1812.1411 C.3      556 DA      0.0000
   1473 O4'       -3.8308    -4.0791  1812.0203 O.3      556 DA      0.0000
   1474 C3'       -5.6037    -4.9221  1810.7336 C.3      556 DA      0.0000
   1475 O3'       -6.9057    -4.3075  1810.7021 O.3      556 DA      0.0000
   1476 C2'       -4.5071    -4.3490  1809.8340 C.3      556 DA      0.0000
   1477 C1'       -3.7982    -3.3808  1810.7318 C.3      556 DA      0.0000
   1478 N9        -2.3934    -3.1240  1810.4322 N.ar     556 DA      0.0000
   1479 C8        -1.3639    -4.0215  1810.2374 C.ar     556 DA      0.0000
   1480 N7        -0.1967    -3.4531  1810.0320 N.ar     556 DA      0.0000
   1481 C5        -0.4621    -2.0996  1810.1065 C.ar     556 DA      0.0000
   1482 C6         0.3707    -0.9661  1809.9731 C.ar     556 DA      0.0000
   1483 N6         1.6762    -1.0310  1809.7299 N.pl3    556 DA      0.0000
   1484 N1        -0.2600     0.2430  1810.1219 N.ar     556 DA      0.0000
   1485 C2        -1.5795     0.3397  1810.3744 C.ar     556 DA      0.0000
   1486 N3        -2.4265    -0.6847  1810.5133 N.ar     556 DA      0.0000
   1487 C4        -1.8022    -1.8745  1810.3661 C.ar     556 DA      0.0000
   1488 H5'       -5.7009    -6.7925  1812.5879 H        556 DA      0.0000
   1489 H5''      -4.8323    -5.9860  1813.9218 H        556 DA      0.0000
   1490 H4'       -5.7113    -4.2036  1812.7312 H        556 DA      0.0000
   1491 H3'       -5.7199    -5.9800  1810.4986 H        556 DA      0.0000
   1492 H2'       -3.8310    -5.1335  1809.4941 H        556 DA      0.0000
   1493 H2''      -4.9457    -3.8285  1808.9827 H        556 DA      0.0000
   1494 H1'       -4.3515    -2.4436  1810.7929 H        556 DA      0.0000
   1495 H8        -1.5040    -5.0922  1810.2524 H        556 DA      0.0000
   1496 H2        -1.9897     1.3339  1810.4735 H        556 DA      0.0000
   1497 H61        2.2105    -0.2259  1810.0239 H        556 DA      0.0000
   1498 H62        2.1037    -1.8293  1809.2826 H        556 DA      0.0000
   1499 P         -7.7264    -4.2893  1809.3171 P.3      555 DT      0.0000
   1500 OP1       -9.1817    -3.9400  1809.3753 O.co2    555 DT      0.0000
   1501 OP2       -7.4161    -5.6589  1808.8045 O.co2    555 DT      0.0000
   1502 O5'       -6.9611    -2.9864  1808.6140 O.3      555 DT      0.0000
   1503 C5'       -6.7614    -1.9539  1809.6263 C.3      555 DT      0.0000
   1504 C4'       -6.5966    -0.6339  1808.9434 C.3      555 DT      0.0000
   1505 O4'       -5.2631    -0.2613  1808.7630 O.3      555 DT      0.0000
   1506 C3'       -7.2696    -0.5492  1807.5821 C.3      555 DT      0.0000
   1507 O3'       -7.8403     0.7376  1807.3148 O.3      555 DT      0.0000
   1508 C2'       -6.0835    -0.9351  1806.6888 C.3      555 DT      0.0000
   1509 C1'       -4.9525    -0.1588  1807.3288 C.3      555 DT      0.0000
   1510 N1        -3.6534    -0.8185  1807.0988 N.am     555 DT      0.0000
   1511 C2        -2.5380    -0.0086  1806.9772 C.2      555 DT      0.0000
   1512 O2        -2.6351     1.2191  1807.0140 O.2      555 DT      0.0000
   1513 N3        -1.3213    -0.6123  1806.8098 N.am     555 DT      0.0000
   1514 C4        -1.1903    -1.9651  1806.7613 C.2      555 DT      0.0000
   1515 O4        -0.0290    -2.4371  1806.5758 O.2      555 DT      0.0000
   1516 C5        -2.3472    -2.7804  1806.9097 C.2      555 DT      0.0000
   1517 C7        -2.2400    -4.2858  1806.8576 C.3      555 DT      0.0000
   1518 C6        -3.5272    -2.1756  1807.0827 C.2      555 DT      0.0000
   1519 H5'       -7.6265    -1.9181  1810.2884 H        555 DT      0.0000
   1520 H5''      -5.8664    -2.1793  1810.2064 H        555 DT      0.0000
   1521 H4'       -7.0596     0.1197  1809.5804 H        555 DT      0.0000
   1522 H3'       -8.0437    -1.3132  1807.5101 H        555 DT      0.0000
   1523 H2'       -5.8957    -2.0084  1806.7194 H        555 DT      0.0000
   1524 H2''      -6.2482    -0.6018  1805.6642 H        555 DT      0.0000
   1525 H1'       -4.9396     0.8788  1806.9949 H        555 DT      0.0000
   1526 H3        -0.4965    -0.0363  1806.7197 H        555 DT      0.0000
   1527 H6        -4.4104    -2.7832  1807.2141 H        555 DT      0.0000
   1528 H71       -2.4790    -4.6330  1805.8524 H        555 DT      0.0000
   1529 H72       -2.9396    -4.7245  1807.5691 H        555 DT      0.0000
   1530 H73       -1.2243    -4.5868  1807.1141 H        555 DT      0.0000
   1531 P         -8.4869     0.9289  1805.8249 P.3      554 DT      0.0000
   1532 OP1       -9.9984     1.1129  1805.9729 O.co2    554 DT      0.0000
   1533 OP2       -8.2008    -0.3845  1805.1551 O.co2    554 DT      0.0000
   1534 O5'       -7.8072     2.1600  1805.1729 O.3      554 DT      0.0000
   1535 C5'       -7.3099     3.2673  1805.9243 C.3      554 DT      0.0000
   1536 C4'       -6.1605     3.8629  1805.1763 C.3      554 DT      0.0000
   1537 O4'       -4.9568     3.1461  1805.1193 O.3      554 DT      0.0000
   1538 C3'       -6.4048     4.2814  1803.7102 C.3      554 DT      0.0000
   1539 O3'       -5.5753     5.4426  1803.6065 O.3      554 DT      0.0000
   1540 C2'       -5.8204     3.0857  1802.9465 C.3      554 DT      0.0000
   1541 C1'       -4.5230     2.9853  1803.7222 C.3      554 DT      0.0000
   1542 N1        -3.8115     1.7083  1803.6160 N.am     554 DT      0.0000
   1543 C2        -2.4130     1.7981  1803.6154 C.2      554 DT      0.0000
   1544 O2        -1.8457     2.8918  1803.6585 O.2      554 DT      0.0000
   1545 N3        -1.7155     0.6257  1803.5620 N.am     554 DT      0.0000
   1546 C4        -2.3238    -0.5928  1803.5022 C.2      554 DT      0.0000
   1547 O4        -1.5879    -1.6233  1803.4398 O.2      554 DT      0.0000
   1548 C5        -3.7440    -0.6551  1803.5105 C.2      554 DT      0.0000
   1549 C7        -4.4330    -2.0023  1803.4490 C.3      554 DT      0.0000
   1550 C6        -4.4222     0.4943  1803.5769 C.2      554 DT      0.0000
   1551 H5'       -8.0959     4.0126  1806.0465 H        554 DT      0.0000
   1552 H5''      -6.9732     2.9252  1806.9028 H        554 DT      0.0000
   1553 H4'       -5.9212     4.7864  1805.7035 H        554 DT      0.0000
   1554 H3'       -7.4531     4.4736  1803.4815 H        554 DT      0.0000
   1555 H2'       -5.6588     3.3043  1801.8909 H        554 DT      0.0000
   1556 H2''      -6.4320     2.1931  1803.0781 H        554 DT      0.0000
   1557 H1'       -3.8595     3.8039  1803.4432 H        554 DT      0.0000
   1558 H3        -0.7062     0.6627  1803.5668 H        554 DT      0.0000
   1559 H6        -5.5013     0.4572  1803.6006 H        554 DT      0.0000
   1560 H71       -3.6837    -2.7924  1803.4002 H        554 DT      0.0000
   1561 H72       -5.0656    -2.0465  1802.5624 H        554 DT      0.0000
   1562 H73       -5.0462    -2.1377  1804.3400 H        554 DT      0.0000
   1563 P         -5.5787     6.4898  1802.4602 P.3      553 DC      0.0000
   1564 OP1       -5.6325     7.8921  1803.0694 O.co2    553 DC      0.0000
   1565 OP2       -6.8286     6.2331  1801.6784 O.co2    553 DC      0.0000
   1566 O5'       -4.1671     6.1506  1801.7208 O.3      553 DC      0.0000
   1567 C5'       -2.9702     6.5862  1802.4454 C.3      553 DC      0.0000
   1568 C4'       -1.9632     6.9765  1801.3948 C.3      553 DC      0.0000
   1569 O4'       -1.0248     5.9550  1801.1495 O.3      553 DC      0.0000
   1570 C3'       -2.5515     7.3397  1800.0304 C.3      553 DC      0.0000
   1571 O3'       -1.8323     8.3509  1799.3211 O.3      553 DC      0.0000
   1572 C2'       -2.5481     5.9667  1799.3443 C.3      553 DC      0.0000
   1573 C1'       -1.2723     5.3289  1799.8909 C.3      553 DC      0.0000
   1574 N1        -1.5055     3.8703  1800.0087 N.am     553 DC      0.0000
   1575 C2        -0.3797     3.0481  1800.0259 C.2      553 DC      0.0000
   1576 O2         0.7619     3.5238  1799.9572 O.2      553 DC      0.0000
   1577 N3        -0.5905     1.6997  1800.1291 N.2      553 DC      0.0000
   1578 C4        -1.8384     1.1669  1800.1999 C.2      553 DC      0.0000
   1579 N4        -1.9926    -0.1550  1800.3018 N.pl3    553 DC      0.0000
   1580 C5        -2.9704     2.0286  1800.1748 C.2      553 DC      0.0000
   1581 C6        -2.7624     3.3531  1800.0812 C.2      553 DC      0.0000
   1582 H5'       -3.2033     7.4402  1803.0813 H        553 DC      0.0000
   1583 H5''      -2.5807     5.7665  1803.0492 H        553 DC      0.0000
   1584 H4'       -1.4188     7.8459  1801.7636 H        553 DC      0.0000
   1585 H3'       -3.5827     7.6663  1800.1646 H        553 DC      0.0000
   1586 H2'       -2.5046     6.0682  1798.2599 H        553 DC      0.0000
   1587 H2''      -3.4231     5.3881  1799.6402 H        553 DC      0.0000
   1588 H1'       -0.4413     5.5188  1799.2115 H        553 DC      0.0000
   1589 H5        -3.9720     1.6282  1800.2295 H        553 DC      0.0000
   1590 H6        -3.6107     4.0214  1800.0631 H        553 DC      0.0000
   1591 H41       -1.1824    -0.7578  1800.3225 H        553 DC      0.0000
   1592 H42       -2.9194    -0.5525  1800.3582 H        553 DC      0.0000
   1593 P         -1.6059     8.4096  1797.6891 P.3      552 DA      0.0000
   1594 OP1       -1.3274     9.8453  1797.2996 O.co2    552 DA      0.0000
   1595 OP2       -2.8567     7.8391  1797.1191 O.co2    552 DA      0.0000
   1596 O5'       -0.2534     7.5779  1797.5236 O.3      552 DA      0.0000
   1597 C5'        1.0049     8.2039  1797.9890 C.3      552 DA      0.0000
   1598 C4'        2.0365     7.5153  1797.1117 C.3      552 DA      0.0000
   1599 O4'        2.0370     6.1072  1797.3791 O.3      552 DA      0.0000
   1600 C3'        1.7306     7.6245  1795.6073 C.3      552 DA      0.0000
   1601 O3'        2.8687     7.3166  1794.8183 O.3      552 DA      0.0000
   1602 C2'        0.7727     6.4336  1795.4199 C.3      552 DA      0.0000
   1603 C1'        1.6744     5.4188  1796.1745 C.3      552 DA      0.0000
   1604 N9         0.8424     4.2288  1796.3199 N.ar     552 DA      0.0000
   1605 C8        -0.5322     4.1950  1796.3928 C.ar     552 DA      0.0000
   1606 N7        -1.0169     2.9839  1796.5074 N.ar     552 DA      0.0000
   1607 C5         0.1290     2.1685  1796.5011 C.ar     552 DA      0.0000
   1608 C6         0.2689     0.7570  1796.6010 C.ar     552 DA      0.0000
   1609 N6        -0.7612    -0.0851  1796.7238 N.pl3    552 DA      0.0000
   1610 N1         1.5572     0.3151  1796.5658 N.ar     552 DA      0.0000
   1611 C2         2.6030     1.1694  1796.4470 C.ar     552 DA      0.0000
   1612 N3         2.5441     2.5011  1796.3555 N.ar     552 DA      0.0000
   1613 C4         1.2686     2.9252  1796.3830 C.ar     552 DA      0.0000
   1614 H5'        0.9977     9.2810  1797.8223 H        552 DA      0.0000
   1615 H5''       1.1814     7.9781  1799.0406 H        552 DA      0.0000
   1616 H4'        3.0248     7.9275  1797.3157 H        552 DA      0.0000
   1617 H3'        1.2759     8.5777  1795.3377 H        552 DA      0.0000
   1618 H2'       -0.1934     6.5846  1795.9015 H        552 DA      0.0000
   1619 H2''       0.6610     6.1685  1794.3685 H        552 DA      0.0000
   1620 H1'        2.5631     5.1906  1795.5861 H        552 DA      0.0000
   1621 H8        -1.1499     5.0803  1796.3588 H        552 DA      0.0000
   1622 H2         3.5878     0.7268  1796.4238 H        552 DA      0.0000
   1623 H61       -1.7054     0.2723  1796.7486 H        552 DA      0.0000
   1624 H62       -0.5955    -1.0791  1796.7919 H        552 DA      0.0000
   1625 P          3.3575     8.3070  1793.6774 P.3      551 DC      0.0000
   1626 OP1        4.1933     9.3082  1794.4576 O.co2    551 DC      0.0000
   1627 OP2        2.2439     8.9284  1792.9518 O.co2    551 DC      0.0000
   1628 O5'        4.1741     7.2652  1792.7015 O.3      551 DC      0.0000
   1629 C5'        5.1951     6.4306  1793.3705 C.3      551 DC      0.0000
   1630 C4'        5.1966     5.0694  1792.7265 C.3      551 DC      0.0000
   1631 O4'        4.3366     4.1326  1793.3636 O.3      551 DC      0.0000
   1632 C3'        4.7712     5.1060  1791.2487 C.3      551 DC      0.0000
   1633 O3'        5.4180     4.1334  1790.4374 O.3      551 DC      0.0000
   1634 C2'        3.2664     4.7138  1791.4143 C.3      551 DC      0.0000
   1635 C1'        3.6095     3.4669  1792.3099 C.3      551 DC      0.0000
   1636 N1         2.3741     2.7672  1792.5478 N.am     551 DC      0.0000
   1637 C2         2.4288     1.4196  1792.8649 C.2      551 DC      0.0000
   1638 O2         3.4096     0.6805  1793.0054 O.2      551 DC      0.0000
   1639 N3         1.2482     0.7589  1793.0631 N.2      551 DC      0.0000
   1640 C4         0.0384     1.3863  1792.9472 C.2      551 DC      0.0000
   1641 N4        -1.0940     0.6990  1793.1632 N.pl3    551 DC      0.0000
   1642 C5        -0.0017     2.7692  1792.6175 C.2      551 DC      0.0000
   1643 C6         1.1661     3.3937  1792.4258 C.2      551 DC      0.0000
   1644 H5'        6.1769     6.8910  1793.2590 H        551 DC      0.0000
   1645 H5''       4.9536     6.3348  1794.4291 H        551 DC      0.0000
   1646 H4'        6.2126     4.6774  1792.7732 H        551 DC      0.0000
   1647 H3'        4.8770     6.1066  1790.8296 H        551 DC      0.0000
   1648 H2'        2.6755     5.4699  1791.9314 H        551 DC      0.0000
   1649 H2''       2.8147     4.4223  1790.4661 H        551 DC      0.0000
   1650 H1'        4.2904     2.8130  1791.7650 H        551 DC      0.0000
   1651 H5        -0.9401     3.2959  1792.5254 H        551 DC      0.0000
   1652 H6         1.1532     4.4410  1792.1626 H        551 DC      0.0000
   1653 H41       -1.0519    -0.2810  1793.4037 H        551 DC      0.0000
   1654 H42       -1.9884     1.1618  1793.0853 H        551 DC      0.0000
   1655 P         -3.3174    -9.4539  1827.0365 P.3      561 DG      0.0000
   1656 OP1       -4.4153   -10.4520  1827.0350 O.co2    561 DG      0.0000
   1657 OP2       -3.6790    -8.3990  1828.0922 O.co2    561 DG      0.0000
   1658 O5'       -1.8383   -10.0127  1827.2149 O.3      561 DG      0.0000
   1659 C5'       -0.8178   -10.2172  1826.2149 C.3      561 DG      0.0000
   1660 C4'        0.4644    -9.5840  1826.7137 C.3      561 DG      0.0000
   1661 O4'        0.5920    -8.2426  1826.2946 O.3      561 DG      0.0000
   1662 C3'        0.7279    -9.5979  1828.2059 C.3      561 DG      0.0000
   1663 O3'        2.0173   -10.1908  1828.5179 O.3      561 DG      0.0000
   1664 C2'        0.6173    -8.1451  1828.6278 C.3      561 DG      0.0000
   1665 C1'        0.9678    -7.3840  1827.3722 C.3      561 DG      0.0000
   1666 N9         0.2476    -6.0980  1827.3431 N.ar     561 DG      0.0000
   1667 C8        -1.0830    -5.8383  1827.5720 C.ar     561 DG      0.0000
   1668 N7        -1.4048    -4.5676  1827.4823 N.ar     561 DG      0.0000
   1669 C5        -0.2015    -3.9428  1827.1653 C.ar     561 DG      0.0000
   1670 C6         0.1250    -2.5828  1826.9394 C.2      561 DG      0.0000
   1671 O6        -0.6236    -1.6054  1826.9606 O.2      561 DG      0.0000
   1672 N1         1.4414    -2.3389  1826.6578 N.am     561 DG      0.0000
   1673 C2         2.3354    -3.2734  1826.5972 C.2      561 DG      0.0000
   1674 N2         3.4752    -2.7816  1826.3004 N.pl3    561 DG      0.0000
   1675 N3         2.1128    -4.6382  1826.8059 N.2      561 DG      0.0000
   1676 C4         0.8206    -4.8694  1827.0785 C.ar     561 DG      0.0000
   1677 H5'       -0.6649   -11.2847  1826.0562 H        561 DG      0.0000
   1678 H5''      -1.1203    -9.7463  1825.2796 H        561 DG      0.0000
   1679 H4'        1.2830   -10.1335  1826.2490 H        561 DG      0.0000
   1680 H3'       -0.0560   -10.1721  1828.6999 H        561 DG      0.0000
   1681 H2'       -0.3958    -7.9109  1828.9548 H        561 DG      0.0000
   1682 H2''       1.3331    -7.9233  1829.4193 H        561 DG      0.0000
   1683 H1'        2.0423    -7.2037  1827.3402 H        561 DG      0.0000
   1684 H8        -1.8007    -6.6110  1827.8051 H        561 DG      0.0000
   1685 H1         1.7291    -1.3856  1826.4895 H        561 DG      0.0000
   1686 H21        3.5739    -1.7869  1826.1560 H        561 DG      0.0000
   1687 H22        4.2784    -3.3872  1826.2100 H        561 DG      0.0000
   1688 P          2.6812   -10.0852  1829.9464 P.3      562 DT      0.0000
   1689 OP1        3.3661   -11.3260  1830.4581 O.co2    562 DT      0.0000
   1690 OP2        1.4588    -9.9060  1830.8651 O.co2    562 DT      0.0000
   1691 O5'        3.5327    -8.7902  1829.9750 O.3      562 DT      0.0000
   1692 C5'        4.9797    -8.7876  1829.8310 C.3      562 DT      0.0000
   1693 C4'        5.3663    -7.3245  1829.8885 C.3      562 DT      0.0000
   1694 O4'        4.2752    -6.4736  1829.6134 O.3      562 DT      0.0000
   1695 C3'        5.9169    -6.8274  1831.2013 C.3      562 DT      0.0000
   1696 O3'        7.2871    -6.4442  1831.0131 O.3      562 DT      0.0000
   1697 C2'        5.0480    -5.6327  1831.5935 C.3      562 DT      0.0000
   1698 C1'        4.5555    -5.1884  1830.2408 C.3      562 DT      0.0000
   1699 N1         3.2882    -4.4639  1830.3374 N.am     562 DT      0.0000
   1700 C2         3.3194    -3.1101  1830.1395 C.2      562 DT      0.0000
   1701 O2         4.3603    -2.5018  1829.9013 O.2      562 DT      0.0000
   1702 N3         2.1281    -2.4405  1830.2205 N.am     562 DT      0.0000
   1703 C4         0.9532    -3.0591  1830.4764 C.2      562 DT      0.0000
   1704 O4        -0.0586    -2.3115  1830.5217 O.2      562 DT      0.0000
   1705 C5         0.9397    -4.4770  1830.6761 C.2      562 DT      0.0000
   1706 C7        -0.3380    -5.1993  1830.9560 C.3      562 DT      0.0000
   1707 C6         2.1095    -5.1237  1830.5946 C.2      562 DT      0.0000
   1708 H5'        5.4482    -9.3415  1830.6445 H        562 DT      0.0000
   1709 H5''       5.2642    -9.2157  1828.8699 H        562 DT      0.0000
   1710 H4'        6.1235    -7.1509  1829.1240 H        562 DT      0.0000
   1711 H3'        5.8458    -7.6084  1831.9584 H        562 DT      0.0000
   1712 H2'        4.2245    -5.9311  1832.2423 H        562 DT      0.0000
   1713 H2''       5.6488    -4.8536  1832.0627 H        562 DT      0.0000
   1714 H1'        5.3107    -4.6223  1829.6954 H        562 DT      0.0000
   1715 H3         2.1267    -1.4399  1830.0830 H        562 DT      0.0000
   1716 H6         2.1277    -6.1945  1830.7350 H        562 DT      0.0000
   1717 H71       -0.6777    -5.7020  1830.0505 H        562 DT      0.0000
   1718 H72       -1.0949    -4.4855  1831.2808 H        562 DT      0.0000
   1719 H73       -0.1737    -5.9372  1831.7413 H        562 DT      0.0000
   1720 P          8.2277    -6.7948  1832.2930 P.3      563 DG      0.0000
   1721 OP1        9.5133    -7.1908  1831.5780 O.co2    563 DG      0.0000
   1722 OP2        7.6140    -7.8736  1833.0465 O.co2    563 DG      0.0000
   1723 O5'        8.2449    -5.2807  1832.9025 O.3      563 DG      0.0000
   1724 C5'        8.5012    -4.3173  1831.8119 C.3      563 DG      0.0000
   1725 C4'        8.1825    -2.9465  1832.3320 C.3      563 DG      0.0000
   1726 O4'        6.8657    -2.4984  1832.1514 O.3      563 DG      0.0000
   1727 C3'        8.5001    -2.7968  1833.8400 C.3      563 DG      0.0000
   1728 O3'        9.3765    -1.6549  1833.9989 O.3      563 DG      0.0000
   1729 C2'        7.1379    -2.6959  1834.4926 C.3      563 DG      0.0000
   1730 C1'        6.3269    -1.9919  1833.4111 C.3      563 DG      0.0000
   1731 N9         4.8893    -2.2311  1833.5806 N.ar     563 DG      0.0000
   1732 C8         4.2490    -3.3918  1833.9168 C.ar     563 DG      0.0000
   1733 N7         2.9408    -3.2911  1834.0025 N.ar     563 DG      0.0000
   1734 C5         2.7084    -1.9578  1833.6725 C.ar     563 DG      0.0000
   1735 C6         1.4940    -1.2197  1833.5782 C.2      563 DG      0.0000
   1736 O6         0.3366    -1.6211  1833.7705 O.2      563 DG      0.0000
   1737 N1         1.6582     0.1049  1833.2431 N.am     563 DG      0.0000
   1738 C2         2.8882     0.6444  1833.0194 C.2      563 DG      0.0000
   1739 N2         2.8573     1.9474  1832.7105 N.pl3    563 DG      0.0000
   1740 N3         4.0490    -0.0030  1833.0904 N.2      563 DG      0.0000
   1741 C4         3.8909    -1.2972  1833.4170 C.ar     563 DG      0.0000
   1742 H5'        9.5478    -4.3664  1831.5115 H        563 DG      0.0000
   1743 H5''       7.8616    -4.5462  1830.9595 H        563 DG      0.0000
   1744 H4'        8.8299    -2.2483  1831.8014 H        563 DG      0.0000
   1745 H3'        9.0065    -3.6946  1834.1948 H        563 DG      0.0000
   1746 H2'        6.7306    -3.6820  1834.7155 H        563 DG      0.0000
   1747 H2''       7.1873    -2.0865  1835.3950 H        563 DG      0.0000
   1748 H1'        6.5156    -0.9200  1833.4700 H        563 DG      0.0000
   1749 H8         4.7757    -4.3173  1834.0974 H        563 DG      0.0000
   1750 H1         0.8422     0.6944  1833.1608 H        563 DG      0.0000
   1751 H21        1.9735     2.4337  1832.6603 H        563 DG      0.0000
   1752 H22        3.7178     2.4437  1832.5279 H        563 DG      0.0000
   1753 P          9.9900    -1.2812  1835.3873 P.3      564 DA      0.0000
   1754 OP1       11.2937    -1.9194  1835.7427 O.co2    564 DA      0.0000
   1755 OP2        8.8789    -1.9422  1836.2830 O.co2    564 DA      0.0000
   1756 O5'        9.8059     0.2740  1835.6364 O.3      564 DA      0.0000
   1757 C5'        9.6258     1.2581  1834.6074 C.3      564 DA      0.0000
   1758 C4'        8.4727     2.1277  1835.0817 C.3      564 DA      0.0000
   1759 O4'        7.2543     1.4207  1834.9913 O.3      564 DA      0.0000
   1760 C3'        8.5714     2.6617  1836.5107 C.3      564 DA      0.0000
   1761 O3'        8.2692     4.0713  1836.5630 O.3      564 DA      0.0000
   1762 C2'        7.5379     1.7998  1837.2462 C.3      564 DA      0.0000
   1763 C1'        6.4663     1.7344  1836.1686 C.3      564 DA      0.0000
   1764 N9         5.4611     0.6914  1836.3970 N.ar     564 DA      0.0000
   1765 C8         5.6191    -0.6482  1836.6128 C.ar     564 DA      0.0000
   1766 N7         4.4887    -1.2983  1836.7777 N.ar     564 DA      0.0000
   1767 C5         3.5178    -0.3179  1836.6375 C.ar     564 DA      0.0000
   1768 C6         2.1081    -0.3834  1836.6855 C.ar     564 DA      0.0000
   1769 N6         1.4113    -1.5009  1836.9053 N.pl3    564 DA      0.0000
   1770 N1         1.4629     0.8058  1836.4957 N.ar     564 DA      0.0000
   1771 C2         2.1501     1.9509  1836.2779 C.ar     564 DA      0.0000
   1772 N3         3.4742     2.0880  1836.2197 N.ar     564 DA      0.0000
   1773 C4         4.0928     0.9079  1836.4065 C.ar     564 DA      0.0000
   1774 H5'        9.3780     0.7789  1833.6602 H        564 DA      0.0000
   1775 H5''      10.5292     1.8584  1834.4996 H        564 DA      0.0000
   1776 H4'        8.4079     2.9852  1834.4119 H        564 DA      0.0000
   1777 H3'        9.5678     2.4767  1836.9122 H        564 DA      0.0000
   1778 H2'        7.9303     0.8129  1837.4917 H        564 DA      0.0000
   1779 H2''       7.1675     2.3069  1838.1371 H        564 DA      0.0000
   1780 H1'        5.9847     2.7055  1836.0541 H        564 DA      0.0000
   1781 H8         6.5854    -1.1295  1836.6448 H        564 DA      0.0000
   1782 H2         1.5643     2.8472  1836.1366 H        564 DA      0.0000
   1783 H61        1.7748    -2.4383  1836.8079 H        564 DA      0.0000
   1784 H62        0.4161    -1.4866  1836.7338 H        564 DA      0.0000
   1785 P          8.9074     5.0653  1837.7045 P.3      565 DA      0.0000
   1786 OP1        9.7426     6.1297  1837.0374 O.co2    565 DA      0.0000
   1787 OP2        9.6565     4.1008  1838.5354 O.co2    565 DA      0.0000
   1788 O5'        7.6232     5.8489  1838.2353 O.3      565 DA      0.0000
   1789 C5'        6.8118     6.6839  1837.4110 C.3      565 DA      0.0000
   1790 C4'        5.3872     6.6216  1837.9333 C.3      565 DA      0.0000
   1791 O4'        4.9140     5.3046  1837.9615 O.3      565 DA      0.0000
   1792 C3'        5.1159     7.2248  1839.3006 C.3      565 DA      0.0000
   1793 O3'        4.2234     8.3361  1839.2228 O.3      565 DA      0.0000
   1794 C2'        4.6087     6.0381  1840.1293 C.3      565 DA      0.0000
   1795 C1'        4.0667     5.0857  1839.1355 C.3      565 DA      0.0000
   1796 N9         4.0859     3.6362  1839.4036 N.ar     565 DA      0.0000
   1797 C8         5.1485     2.7731  1839.5188 C.ar     565 DA      0.0000
   1798 N7         4.8049     1.5183  1839.6881 N.ar     565 DA      0.0000
   1799 C5         3.4145     1.5474  1839.6511 C.ar     565 DA      0.0000
   1800 C6         2.4414     0.5147  1839.7715 C.ar     565 DA      0.0000
   1801 N6         2.7036    -0.7721  1839.9631 N.pl3    565 DA      0.0000
   1802 N1         1.1333     0.9183  1839.6733 N.ar     565 DA      0.0000
   1803 C2         0.8244     2.2341  1839.4843 C.ar     565 DA      0.0000
   1804 N3         1.6795     3.2446  1839.3764 N.ar     565 DA      0.0000
   1805 C4         2.9600     2.8329  1839.4683 C.ar     565 DA      0.0000
   1806 H5'        6.8433     6.3287  1836.3809 H        565 DA      0.0000
   1807 H5''       7.1754     7.7105  1837.4569 H        565 DA      0.0000
   1808 H4'        4.7662     7.1643  1837.2206 H        565 DA      0.0000
   1809 H3'        6.0605     7.5662  1839.7238 H        565 DA      0.0000
   1810 H2'        5.4261     5.5842  1840.6896 H        565 DA      0.0000
   1811 H2''       3.8207     6.3626  1840.8089 H        565 DA      0.0000
   1812 H1'        3.0468     5.3813  1838.8895 H        565 DA      0.0000
   1813 H8         6.1771     3.0991  1839.4739 H        565 DA      0.0000
   1814 H2        -0.2252     2.4792  1839.4151 H        565 DA      0.0000
   1815 H61        3.6029    -1.0961  1840.2893 H        565 DA      0.0000
   1816 H62        1.9790    -1.4506  1839.7763 H        565 DA      0.0000
   1817 P          4.2653     9.6507  1840.1790 P.3      566 DT      0.0000
   1818 OP1        4.0363    10.9298  1839.3817 O.co2    566 DT      0.0000
   1819 OP2        5.4582     9.6486  1840.9996 O.co2    566 DT      0.0000
   1820 O5'        2.8427     9.5114  1840.9927 O.3      566 DT      0.0000
   1821 C5'        1.7853     9.0495  1840.0476 C.3      566 DT      0.0000
   1822 C4'        0.9995     8.0323  1840.8353 C.3      566 DT      0.0000
   1823 O4'        1.6825     6.8139  1841.0273 O.3      566 DT      0.0000
   1824 C3'        0.6581     8.5303  1842.2519 C.3      566 DT      0.0000
   1825 O3'       -0.6612     9.0435  1842.2536 O.3      566 DT      0.0000
   1826 C2'        0.8750     7.3143  1843.1492 C.3      566 DT      0.0000
   1827 C1'        0.9642     6.2000  1842.1845 C.3      566 DT      0.0000
   1828 N1         1.6848     4.9834  1842.5243 N.am     566 DT      0.0000
   1829 C2         0.9292     3.8232  1842.6622 C.2      566 DT      0.0000
   1830 O2        -0.2908     3.8772  1842.5742 O.2      566 DT      0.0000
   1831 N3         1.5828     2.6553  1842.9162 N.am     566 DT      0.0000
   1832 C4         2.9410     2.5812  1843.0364 C.2      566 DT      0.0000
   1833 O4         3.4758     1.4552  1843.2916 O.2      566 DT      0.0000
   1834 C5         3.7003     3.7853  1842.8648 C.2      566 DT      0.0000
   1835 C7         5.2011     3.7546  1842.9523 C.3      566 DT      0.0000
   1836 C6         3.0509     4.9340  1842.6090 C.2      566 DT      0.0000
   1837 H5'        1.1477     9.8806  1839.7460 H        566 DT      0.0000
   1838 H5''       2.2377     8.5830  1839.1726 H        566 DT      0.0000
   1839 H4'        0.0686     7.8281  1840.3062 H        566 DT      0.0000
   1840 H3'        1.3544     9.3193  1842.5362 H        566 DT      0.0000
   1841 H2'        1.7969     7.4105  1843.7226 H        566 DT      0.0000
   1842 H2''       0.0238     7.1750  1843.8156 H        566 DT      0.0000
   1843 H1'       -0.0435     5.9317  1841.8672 H        566 DT      0.0000
   1844 H3         1.0405     1.8096  1843.0199 H        566 DT      0.0000
   1845 H6         3.6205     5.8406  1842.4669 H        566 DT      0.0000
   1846 H71        5.5324     2.7383  1843.1654 H        566 DT      0.0000
   1847 H72        5.6268     4.0841  1842.0045 H        566 DT      0.0000
   1848 H73        5.5322     4.4195  1843.7501 H        566 DT      0.0000
   1849 P         -1.3966     9.8461  1843.3602 P.3      567 DT      0.0000
   1850 OP1       -2.5597    10.6689  1842.7481 O.co2    567 DT      0.0000
   1851 OP2       -0.3741    10.7206  1843.9902 O.co2    567 DT      0.0000
   1852 O5'       -2.1354     8.7292  1844.2425 O.3      567 DT      0.0000
   1853 C5'       -3.2337     8.0985  1843.5308 C.3      567 DT      0.0000
   1854 C4'       -3.5659     6.8137  1844.2069 C.3      567 DT      0.0000
   1855 O4'       -2.5090     5.8624  1844.1836 O.3      567 DT      0.0000
   1856 C3'       -3.9957     6.9616  1845.6735 C.3      567 DT      0.0000
   1857 O3'       -5.1211     6.1455  1845.9376 O.3      567 DT      0.0000
   1858 C2'       -2.7567     6.3990  1846.4099 C.3      567 DT      0.0000
   1859 C1'       -2.5128     5.2075  1845.5063 C.3      567 DT      0.0000
   1860 N1        -1.2396     4.5779  1845.8040 N.am     567 DT      0.0000
   1861 C2        -1.1830     3.1947  1845.8588 C.2      567 DT      0.0000
   1862 O2        -2.2144     2.5480  1845.6704 O.2      567 DT      0.0000
   1863 N3         0.0217     2.6072  1846.1247 N.am     567 DT      0.0000
   1864 C4         1.1536     3.3343  1846.3318 C.2      567 DT      0.0000
   1865 O4         2.2362     2.7206  1846.5551 O.2      567 DT      0.0000
   1866 C5         1.0845     4.7565  1846.2667 C.2      567 DT      0.0000
   1867 C7         2.2891     5.6269  1846.4766 C.3      567 DT      0.0000
   1868 C6        -0.1067     5.3170  1846.0056 C.2      567 DT      0.0000
   1869 H5'       -4.1038     8.7549  1843.5432 H        567 DT      0.0000
   1870 H5''      -2.9376     7.9033  1842.5000 H        567 DT      0.0000
   1871 H4'       -4.4057     6.3747  1843.6684 H        567 DT      0.0000
   1872 H3'       -4.1824     8.0029  1845.9360 H        567 DT      0.0000
   1873 H2'       -1.9206     7.0983  1846.4086 H        567 DT      0.0000
   1874 H2''      -3.0074     6.0833  1847.4226 H        567 DT      0.0000
   1875 H1'       -3.3288     4.4888  1845.5819 H        567 DT      0.0000
   1876 H3         0.0740     1.5995  1846.1692 H        567 DT      0.0000
   1877 H6        -0.1732     6.3936  1845.9525 H        567 DT      0.0000
   1878 H71        3.1596     5.0016  1846.6755 H        567 DT      0.0000
   1879 H72        2.4670     6.2226  1845.5813 H        567 DT      0.0000
   1880 H73        2.1158     6.2888  1847.3250 H        567 DT      0.0000
   1881 P          1.8451    -8.3863  1848.2213 P.3      567 DA      0.0000
   1882 OP1        0.8305    -9.2308  1849.0027 O.co2    567 DA      0.0000
   1883 OP2        2.2985    -9.1054  1847.0286 O.co2    567 DA      0.0000
   1884 O5'        1.1561    -6.9204  1848.0465 O.3      567 DA      0.0000
   1885 C5'        0.3031    -6.5791  1849.2030 C.3      567 DA      0.0000
   1886 C4'       -1.1037    -6.4437  1848.6752 C.3      567 DA      0.0000
   1887 O4'       -1.4680    -5.1050  1848.4529 O.3      567 DA      0.0000
   1888 C3'       -1.3075    -7.1486  1847.3347 C.3      567 DA      0.0000
   1889 O3'       -2.5420    -7.8207  1847.2595 O.3      567 DA      0.0000
   1890 C2'       -1.0494    -6.0328  1846.3381 C.3      567 DA      0.0000
   1891 C1'       -1.3218    -4.7439  1847.0620 C.3      567 DA      0.0000
   1892 N9        -0.2520    -3.7569  1846.8365 N.ar     567 DA      0.0000
   1893 C8         1.0969    -3.9691  1846.6501 C.ar     567 DA      0.0000
   1894 N7         1.7953    -2.8744  1846.4542 N.ar     567 DA      0.0000
   1895 C5         0.8408    -1.8686  1846.5411 C.ar     567 DA      0.0000
   1896 C6         0.9511    -0.4624  1846.4354 C.ar     567 DA      0.0000
   1897 N6         2.0905     0.1721  1846.2229 N.pl3    567 DA      0.0000
   1898 N1        -0.2089     0.2400  1846.5591 N.ar     567 DA      0.0000
   1899 C2        -1.4003    -0.3888  1846.7837 C.ar     567 DA      0.0000
   1900 N3        -1.5715    -1.7041  1846.8995 N.ar     567 DA      0.0000
   1901 C4        -0.4118    -2.3915  1846.7634 C.ar     567 DA      0.0000
   1902 H5'        0.3496    -7.3705  1849.9511 H        567 DA      0.0000
   1903 H5''       0.6289    -5.6351  1849.6397 H        567 DA      0.0000
   1904 H4'       -1.7912    -6.8750  1849.4029 H        567 DA      0.0000
   1905 H3'       -0.5155    -7.8889  1847.2216 H        567 DA      0.0000
   1906 H2'       -1.7157    -6.1316  1845.4812 H        567 DA      0.0000
   1907 H2''      -0.0111    -6.0619  1846.0076 H        567 DA      0.0000
   1908 H1'       -2.2646    -4.3304  1846.7038 H        567 DA      0.0000
   1909 H8         1.5423    -4.9529  1846.6640 H        567 DA      0.0000
   1910 H2        -2.2781     0.2337  1846.8749 H        567 DA      0.0000
   1911 H61        2.2263     1.1220  1846.5384 H        567 DA      0.0000
   1912 H62        2.8388    -0.3010  1845.7367 H        567 DA      0.0000
   1913 P         -3.5754    -7.9805  1846.0749 P.3      566 DA      0.0000
   1914 OP1       -4.9098    -8.5906  1846.5948 O.co2    566 DA      0.0000
   1915 OP2       -2.9273    -8.9535  1845.1412 O.co2    566 DA      0.0000
   1916 O5'       -3.9427    -6.5333  1845.5722 O.3      566 DA      0.0000
   1917 C5'       -5.1552    -5.8982  1846.0281 C.3      566 DA      0.0000
   1918 C4'       -5.2440    -4.5606  1845.3261 C.3      566 DA      0.0000
   1919 O4'       -4.0211    -3.8917  1845.2054 O.3      566 DA      0.0000
   1920 C3'       -5.8322    -4.6491  1843.9186 C.3      566 DA      0.0000
   1921 O3'       -7.1034    -3.9731  1843.8872 O.3      566 DA      0.0000
   1922 C2'       -4.7095    -4.1290  1843.0190 C.3      566 DA      0.0000
   1923 C1'       -3.9552    -3.1957  1843.9168 C.3      566 DA      0.0000
   1924 N9        -2.5397    -3.0063  1843.6172 N.ar     566 DA      0.0000
   1925 C8        -1.5542    -3.9518  1843.4225 C.ar     566 DA      0.0000
   1926 N7        -0.3612    -3.4398  1843.2170 N.ar     566 DA      0.0000
   1927 C5        -0.5618    -2.0752  1843.2916 C.ar     566 DA      0.0000
   1928 C6         0.3242    -0.9827  1843.1581 C.ar     566 DA      0.0000
   1929 N6         1.6251    -1.1098  1842.9149 N.pl3    566 DA      0.0000
   1930 N1        -0.2481     0.2551  1843.3069 N.ar     566 DA      0.0000
   1931 C2        -1.5615     0.4147  1843.5594 C.ar     566 DA      0.0000
   1932 N3        -2.4564    -0.5681  1843.6983 N.ar     566 DA      0.0000
   1933 C4        -1.8896    -1.7864  1843.5511 C.ar     566 DA      0.0000
   1934 H5'       -6.0184    -6.5128  1845.7729 H        566 DA      0.0000
   1935 H5''      -5.1124    -5.7486  1847.1069 H        566 DA      0.0000
   1936 H4'       -5.9054    -3.9263  1845.9162 H        566 DA      0.0000
   1937 H3'       -5.9987    -5.7003  1843.6836 H        566 DA      0.0000
   1938 H2'       -4.0716    -4.9449  1842.6791 H        566 DA      0.0000
   1939 H2''      -5.1228    -3.5882  1842.1677 H        566 DA      0.0000
   1940 H1'       -4.4631    -2.2332  1843.9779 H        566 DA      0.0000
   1941 H8        -1.7453    -5.0147  1843.4374 H        566 DA      0.0000
   1942 H2        -1.9238     1.4273  1843.6585 H        566 DA      0.0000
   1943 H61        2.1972    -0.3311  1843.2089 H        566 DA      0.0000
   1944 H62        2.0141    -1.9276  1842.4676 H        566 DA      0.0000
   1945 P         -7.9222    -3.9158  1842.5022 P.3      565 DT      0.0000
   1946 OP1       -9.3592    -3.4975  1842.5603 O.co2    565 DT      0.0000
   1947 OP2       -7.6776    -5.2987  1841.9896 O.co2    565 DT      0.0000
   1948 O5'       -7.0957    -2.6509  1841.7990 O.3      565 DT      0.0000
   1949 C5'       -6.8469    -1.6291  1842.8114 C.3      565 DT      0.0000
   1950 C4'       -6.6194    -0.3185  1842.1284 C.3      565 DT      0.0000
   1951 O4'       -5.2696    -0.0099  1841.9480 O.3      565 DT      0.0000
   1952 C3'       -7.2875    -0.2018  1840.7672 C.3      565 DT      0.0000
   1953 O3'       -7.7962     1.1108  1840.4999 O.3      565 DT      0.0000
   1954 C2'       -6.1211    -0.6438  1839.8738 C.3      565 DT      0.0000
   1955 C1'       -4.9544     0.0777  1840.5138 C.3      565 DT      0.0000
   1956 N1        -3.6883    -0.6432  1840.2839 N.am     565 DT      0.0000
   1957 C2        -2.5355     0.1125  1840.1622 C.2      565 DT      0.0000
   1958 O2        -2.5740     1.3434  1840.1990 O.2      565 DT      0.0000
   1959 N3        -1.3490    -0.5485  1839.9948 N.am     565 DT      0.0000
   1960 C4        -1.2827    -1.9061  1839.9463 C.2      565 DT      0.0000
   1961 O4        -0.1452    -2.4329  1839.7608 O.2      565 DT      0.0000
   1962 C5        -2.4772    -2.6652  1840.0947 C.2      565 DT      0.0000
   1963 C7        -2.4419    -4.1741  1840.0426 C.3      565 DT      0.0000
   1964 C6        -3.6270    -2.0049  1840.2677 C.2      565 DT      0.0000
   1965 H5'       -7.7094    -1.5521  1843.4735 H        565 DT      0.0000
   1966 H5''      -5.9637    -1.8970  1843.3914 H        565 DT      0.0000
   1967 H4'       -7.0459     0.4564  1842.7654 H        565 DT      0.0000
   1968 H3'       -8.0972    -0.9280  1840.6951 H        565 DT      0.0000
   1969 H2'       -5.9848    -1.7248  1839.9044 H        565 DT      0.0000
   1970 H2''      -6.2698    -0.3030  1838.8492 H        565 DT      0.0000
   1971 H1'       -4.8920     1.1135  1840.1799 H        565 DT      0.0000
   1972 H3        -0.4977    -0.0126  1839.9047 H        565 DT      0.0000
   1973 H6        -4.5381    -2.5697  1840.3991 H        565 DT      0.0000
   1974 H71       -2.6972    -4.5095  1839.0374 H        565 DT      0.0000
   1975 H72       -3.1616    -4.5788  1840.7542 H        565 DT      0.0000
   1976 H73       -1.4417    -4.5232  1840.2991 H        565 DT      0.0000
   1977 P         -8.4329     1.3328  1839.0100 P.3      564 DT      0.0000
   1978 OP1       -9.9339     1.5887  1839.1579 O.co2    564 DT      0.0000
   1979 OP2       -8.2098     0.0072  1838.3401 O.co2    564 DT      0.0000
   1980 O5'       -7.6953     2.5300  1838.3579 O.3      564 DT      0.0000
   1981 C5'       -7.1457     3.6124  1839.1093 C.3      564 DT      0.0000
   1982 C4'       -5.9692     4.1524  1838.3613 C.3      564 DT      0.0000
   1983 O4'       -4.8011     3.3791  1838.3043 O.3      564 DT      0.0000
   1984 C3'       -6.1932     4.5821  1836.8953 C.3      564 DT      0.0000
   1985 O3'       -5.3093     5.7024  1836.7915 O.3      564 DT      0.0000
   1986 C2'       -5.6666     3.3599  1836.1315 C.3      564 DT      0.0000
   1987 C1'       -4.3754     3.1977  1836.9072 C.3      564 DT      0.0000
   1988 N1        -3.7256     1.8882  1836.8011 N.am     564 DT      0.0000
   1989 C2        -2.3245     1.9112  1836.8005 C.2      564 DT      0.0000
   1990 O2        -1.7056     2.9765  1836.8435 O.2      564 DT      0.0000
   1991 N3        -1.6837     0.7068  1836.7470 N.am     564 DT      0.0000
   1992 C4        -2.3494    -0.4813  1836.6873 C.2      564 DT      0.0000
   1993 O4        -1.6635    -1.5457  1836.6249 O.2      564 DT      0.0000
   1994 C5        -3.7710    -0.4757  1836.6955 C.2      564 DT      0.0000
   1995 C7        -4.5235    -1.7885  1836.6341 C.3      564 DT      0.0000
   1996 C6        -4.3936     0.7047  1836.7620 C.2      564 DT      0.0000
   1997 H5'       -7.8952     4.3943  1839.2315 H        564 DT      0.0000
   1998 H5''      -6.8257     3.2545  1840.0879 H        564 DT      0.0000
   1999 H4'       -5.6861     5.0634  1838.8886 H        564 DT      0.0000
   2000 H3'       -7.2311     4.8241  1836.6666 H        564 DT      0.0000
   2001 H2'       -5.4947     3.5706  1835.0760 H        564 DT      0.0000
   2002 H2''      -6.3200     2.4975  1836.2631 H        564 DT      0.0000
   2003 H1'       -3.6737     3.9837  1836.6282 H        564 DT      0.0000
   2004 H3        -0.6738     0.6957  1836.7519 H        564 DT      0.0000
   2005 H6        -5.4732     0.7192  1836.7857 H        564 DT      0.0000
   2006 H71       -3.8128    -2.6135  1836.5853 H        564 DT      0.0000
   2007 H72       -5.1574    -1.8025  1835.7475 H        564 DT      0.0000
   2008 H73       -5.1425    -1.8945  1837.5250 H        564 DT      0.0000
   2009 P         -5.2627     6.7486  1835.6453 P.3      563 DC      0.0000
   2010 OP1       -5.2496     8.1518  1836.2544 O.co2    563 DC      0.0000
   2011 OP2       -6.5234     6.5518  1834.8634 O.co2    563 DC      0.0000
   2012 O5'       -3.8689     6.3424  1834.9059 O.3      563 DC      0.0000
   2013 C5'       -2.6526     6.7204  1835.6304 C.3      563 DC      0.0000
   2014 C4'       -1.6281     7.0622  1834.5799 C.3      563 DC      0.0000
   2015 O4'       -0.7395     5.9971  1834.3346 O.3      563 DC      0.0000
   2016 C3'       -2.1984     7.4531  1833.2154 C.3      563 DC      0.0000
   2017 O3'       -1.4318     8.4288  1832.5062 O.3      563 DC      0.0000
   2018 C2'       -2.2605     6.0815  1832.5293 C.3      563 DC      0.0000
   2019 C1'       -1.0166     5.3836  1833.0759 C.3      563 DC      0.0000
   2020 N1        -1.3191     3.9378  1833.1937 N.am     563 DC      0.0000
   2021 C2        -0.2339     3.0628  1833.2109 C.2      563 DC      0.0000
   2022 O2         0.9292     3.4835  1833.1423 O.2      563 DC      0.0000
   2023 N3        -0.5087     1.7259  1833.3142 N.2      563 DC      0.0000
   2024 C4        -1.7807     1.2533  1833.3849 C.2      563 DC      0.0000
   2025 N4        -1.9977    -0.0598  1833.4869 N.pl3    563 DC      0.0000
   2026 C5        -2.8702     2.1680  1833.3598 C.2      563 DC      0.0000
   2027 C6        -2.5993     3.4811  1833.2662 C.2      563 DC      0.0000
   2028 H5'       -2.8446     7.5845  1836.2663 H        563 DC      0.0000
   2029 H5''      -2.3026     5.8831  1836.2343 H        563 DC      0.0000
   2030 H4'       -1.0429     7.9046  1834.9486 H        563 DC      0.0000
   2031 H3'       -3.2128     7.8285  1833.3496 H        563 DC      0.0000
   2032 H2'       -2.2122     6.1808  1831.4449 H        563 DC      0.0000
   2033 H2''      -3.1622     5.5452  1832.8253 H        563 DC      0.0000
   2034 H1'       -0.1775     5.5336  1832.3965 H        563 DC      0.0000
   2035 H5        -3.8898     1.8159  1833.4146 H        563 DC      0.0000
   2036 H6        -3.4148     4.1891  1833.2481 H        563 DC      0.0000
   2037 H41       -1.2172    -0.7006  1833.5075 H        563 DC      0.0000
   2038 H42       -2.9424    -0.4126  1833.5432 H        563 DC      0.0000
   2039 P         -1.2029     8.4766  1830.8741 P.3      562 DA      0.0000
   2040 OP1       -0.8561     9.8974  1830.4847 O.co2    562 DA      0.0000
   2041 OP2       -2.4794     7.9665  1830.3041 O.co2    562 DA      0.0000
   2042 O5'        0.1085     7.5814  1830.7086 O.3      562 DA      0.0000
   2043 C5'        1.3952     8.1466  1831.1740 C.3      562 DA      0.0000
   2044 C4'        2.3928     7.4096  1830.2968 C.3      562 DA      0.0000
   2045 O4'        2.3260     6.0030  1830.5641 O.3      562 DA      0.0000
   2046 C3'        2.0924     7.5332  1828.7924 C.3      562 DA      0.0000
   2047 O3'        3.2145     7.1714  1828.0033 O.3      562 DA      0.0000
   2048 C2'        1.0787     6.3894  1828.6049 C.3      562 DA      0.0000
   2049 C1'        1.9311     5.3328  1829.3596 C.3      562 DA      0.0000
   2050 N9         1.0432     4.1838  1829.5050 N.ar     562 DA      0.0000
   2051 C8        -0.3315     4.2156  1829.5778 C.ar     562 DA      0.0000
   2052 N7        -0.8733     3.0290  1829.6925 N.ar     562 DA      0.0000
   2053 C5         0.2323     2.1599  1829.6861 C.ar     562 DA      0.0000
   2054 C6         0.3047     0.7433  1829.7860 C.ar     562 DA      0.0000
   2055 N6        -0.7644    -0.0487  1829.9089 N.pl3    562 DA      0.0000
   2056 N1         1.5705     0.2405  1829.7509 N.ar     562 DA      0.0000
   2057 C2         2.6558     1.0439  1829.6320 C.ar     562 DA      0.0000
   2058 N3         2.6605     2.3769  1829.5405 N.ar     562 DA      0.0000
   2059 C4         1.4067     2.8614  1829.5681 C.ar     562 DA      0.0000
   2060 H5'        1.4394     9.2228  1831.0073 H        562 DA      0.0000
   2061 H5''       1.5607     7.9127  1832.2257 H        562 DA      0.0000
   2062 H4'        3.3996     7.7741  1830.5007 H        562 DA      0.0000
   2063 H3'        1.6837     8.5071  1828.5227 H        562 DA      0.0000
   2064 H2'        0.1210     6.5863  1829.0865 H        562 DA      0.0000
   2065 H2''       0.9546     6.1300  1827.5535 H        562 DA      0.0000
   2066 H1'        2.8078     5.0624  1828.7711 H        562 DA      0.0000
   2067 H8        -0.9062     5.1293  1829.5438 H        562 DA      0.0000
   2068 H2         3.6184     0.5548  1829.6088 H        562 DA      0.0000
   2069 H61       -1.6905     0.3534  1829.9336 H        562 DA      0.0000
   2070 H62       -0.6463    -1.0495  1829.9770 H        562 DA      0.0000
   2071 P          3.7501     8.1374  1826.8624 P.3      561 DC      0.0000
   2072 OP1        4.6326     9.0975  1827.6427 O.co2    561 DC      0.0000
   2073 OP2        2.6673     8.8111  1826.1368 O.co2    561 DC      0.0000
   2074 O5'        4.5159     7.0578  1825.8865 O.3      561 DC      0.0000
   2075 C5'        5.4960     6.1754  1826.5556 C.3      561 DC      0.0000
   2076 C4'        5.4325     4.8157  1825.9115 C.3      561 DC      0.0000
   2077 O4'        4.5288     3.9210  1826.5487 O.3      561 DC      0.0000
   2078 C3'        5.0094     4.8725  1824.4337 C.3      561 DC      0.0000
   2079 O3'        5.6090     3.8702  1823.6224 O.3      561 DC      0.0000
   2080 C2'        3.4875     4.5526  1824.5994 C.3      561 DC      0.0000
   2081 C1'        3.7708     3.2907  1825.4949 C.3      561 DC      0.0000
   2082 N1         2.5034     2.6508  1825.7328 N.am     561 DC      0.0000
   2083 C2         2.4937     1.3021  1826.0500 C.2      561 DC      0.0000
   2084 O2         3.4382     0.5171  1826.1904 O.2      561 DC      0.0000
   2085 N3         1.2830     0.6984  1826.2482 N.2      561 DC      0.0000
   2086 C4         0.1045     1.3829  1826.1322 C.2      561 DC      0.0000
   2087 N4        -1.0594     0.7504  1826.3483 N.pl3    561 DC      0.0000
   2088 C5         0.1304     2.7662  1825.8026 C.2      561 DC      0.0000
   2089 C6         1.3267     3.3342  1825.6109 C.2      561 DC      0.0000
   2090 H5'        6.4986     6.5885  1826.4441 H        561 DC      0.0000
   2091 H5''       5.2502     6.0912  1827.6142 H        561 DC      0.0000
   2092 H4'        6.4287     4.3757  1825.9583 H        561 DC      0.0000
   2093 H3'        5.1628     5.8670  1824.0147 H        561 DC      0.0000
   2094 H2'        2.9334     5.3360  1825.1165 H        561 DC      0.0000
   2095 H2''       3.0225     4.2830  1823.6511 H        561 DC      0.0000
   2096 H1'        4.4197     2.6051  1824.9500 H        561 DC      0.0000
   2097 H5        -0.7818     3.3370  1825.7104 H        561 DC      0.0000
   2098 H6         1.3637     4.3809  1825.3476 H        561 DC      0.0000
   2099 H41       -1.0641    -0.2305  1826.5888 H        561 DC      0.0000
   2100 H42       -1.9307     1.2554  1826.2703 H        561 DC      0.0000
@<TRIPOS>BOND
     1      9     33 1
     2     41     65 1
     3     73     97 1
     4    105    127 1
     5    135    159 1
     6    197    222 1
     7    230    254 1
     8    262    287 1
     9    295    319 1
    10    327    351 1
    11      1      2 1
    12      1      3 1
    13      1      4 1
    14      4      5 1
    15      5      6 1
    16      6      7 1
    17      6      8 1
    18      7     11 1
    19      8      9 1
    20      8     10 1
    21     10     11 1
    22     11     12 1
    23     12     13 ar
    24     12     21 ar
    25     13     14 ar
    26     14     15 ar
    27     15     16 ar
    28     15     21 ar
    29     16     17 1
    30     16     18 ar
    31     18     19 ar
    32     19     20 ar
    33     20     21 ar
    34     33     34 1
    35     33     35 1
    36     33     36 1
    37     36     37 1
    38     37     38 1
    39     38     39 1
    40     38     40 1
    41     39     43 1
    42     40     41 1
    43     40     42 1
    44     42     43 1
    45     43     44 1
    46     44     45 am
    47     44     52 1
    48     45     46 2
    49     45     47 am
    50     47     48 am
    51     48     49 2
    52     48     50 1
    53     50     51 1
    54     50     52 2
    55     65     66 1
    56     65     67 1
    57     65     68 1
    58     68     69 1
    59     69     70 1
    60     70     71 1
    61     70     72 1
    62     71     75 1
    63     72     73 1
    64     72     74 1
    65     74     75 1
    66     75     76 1
    67     76     77 am
    68     76     84 1
    69     77     78 2
    70     77     79 am
    71     79     80 am
    72     80     81 2
    73     80     82 1
    74     82     83 1
    75     82     84 2
    76     97     98 1
    77     97     99 1
    78     97    100 1
    79    100    101 1
    80    101    102 1
    81    102    103 1
    82    102    104 1
    83    103    107 1
    84    104    105 1
    85    104    106 1
    86    106    107 1
    87    107    108 1
    88    108    109 am
    89    108    115 1
    90    109    110 2
    91    109    111 1
    92    111    112 2
    93    112    113 2
    94    112    114 2
    95    114    115 2
    96    127    128 1
    97    127    129 1
    98    127    130 1
    99    130    131 1
   100    131    132 1
   101    132    133 1
   102    132    134 1
   103    133    137 1
   104    134    135 1
   105    134    136 1
   106    136    137 1
   107    137    138 1
   108    138    139 ar
   109    138    147 ar
   110    139    140 ar
   111    140    141 ar
   112    141    142 ar
   113    141    147 ar
   114    142    143 1
   115    142    144 ar
   116    144    145 ar
   117    145    146 ar
   118    146    147 ar
   119    159    160 1
   120    159    161 1
   121    159    162 1
   122    162    163 1
   123    163    164 1
   124    164    165 1
   125    164    166 1
   126    165    169 1
   127    166    167 1
   128    166    168 1
   129    168    169 1
   130    169    170 1
   131    170    171 am
   132    170    177 1
   133    171    172 2
   134    171    173 1
   135    173    174 2
   136    174    175 2
   137    174    176 2
   138    176    177 2
   139    189    190 1
   140    189    191 1
   141    189    192 1
   142    192    193 1
   143    193    194 1
   144    194    195 1
   145    194    196 1
   146    195    199 1
   147    196    197 1
   148    196    198 1
   149    198    199 1
   150    199    200 1
   151    200    201 ar
   152    200    210 ar
   153    201    202 ar
   154    202    203 ar
   155    203    204 1
   156    203    210 ar
   157    204    205 2
   158    204    206 am
   159    206    207 1
   160    207    208 2
   161    207    209 2
   162    209    210 1
   163    222    223 1
   164    222    224 1
   165    222    225 1
   166    225    226 1
   167    226    227 1
   168    227    228 1
   169    227    229 1
   170    228    232 1
   171    229    230 1
   172    229    231 1
   173    231    232 1
   174    232    233 1
   175    233    234 am
   176    233    241 1
   177    234    235 2
   178    234    236 am
   179    236    237 am
   180    237    238 2
   181    237    239 1
   182    239    240 1
   183    239    241 2
   184    254    255 1
   185    254    256 1
   186    254    257 1
   187    257    258 1
   188    258    259 1
   189    259    260 1
   190    259    261 1
   191    260    264 1
   192    261    262 1
   193    261    263 1
   194    263    264 1
   195    264    265 1
   196    265    266 ar
   197    265    275 ar
   198    266    267 ar
   199    267    268 ar
   200    268    269 1
   201    268    275 ar
   202    269    270 2
   203    269    271 am
   204    271    272 1
   205    272    273 2
   206    272    274 2
   207    274    275 1
   208    287    288 1
   209    287    289 1
   210    287    290 1
   211    290    291 1
   212    291    292 1
   213    292    293 1
   214    292    294 1
   215    293    297 1
   216    294    295 1
   217    294    296 1
   218    296    297 1
   219    297    298 1
   220    298    299 ar
   221    298    307 ar
   222    299    300 ar
   223    300    301 ar
   224    301    302 ar
   225    301    307 ar
   226    302    303 1
   227    302    304 ar
   228    304    305 ar
   229    305    306 ar
   230    306    307 ar
   231    319    320 1
   232    319    321 1
   233    319    322 1
   234    322    323 1
   235    323    324 1
   236    324    325 1
   237    324    326 1
   238    325    329 1
   239    326    327 1
   240    326    328 1
   241    328    329 1
   242    329    330 1
   243    330    331 ar
   244    330    339 ar
   245    331    332 ar
   246    332    333 ar
   247    333    334 ar
   248    333    339 ar
   249    334    335 1
   250    334    336 ar
   251    336    337 ar
   252    337    338 ar
   253    338    339 ar
   254    351    352 1
   255    351    353 1
   256    351    354 1
   257    354    355 1
   258    355    356 1
   259    356    357 1
   260    356    358 1
   261    357    361 1
   262    358    359 1
   263    358    360 1
   264    360    361 1
   265    361    362 1
   266    362    363 am
   267    362    370 1
   268    363    364 2
   269    363    365 am
   270    365    366 am
   271    366    367 2
   272    366    368 1
   273    368    369 1
   274    368    370 2
   275     22      5 1
   276     23      5 1
   277     24      6 1
   278     25      8 1
   279     26     10 1
   280     27     10 1
   281     28     11 1
   282     29     13 1
   283     30     19 1
   284     53     37 1
   285     54     37 1
   286     55     38 1
   287     56     40 1
   288     57     42 1
   289     58     42 1
   290     59     43 1
   291     60     47 1
   292     61     52 1
   293     85     69 1
   294     86     69 1
   295     87     70 1
   296     88     72 1
   297     89     74 1
   298     90     74 1
   299     91     75 1
   300     92     79 1
   301     93     84 1
   302    116    101 1
   303    117    101 1
   304    118    102 1
   305    119    104 1
   306    120    106 1
   307    121    106 1
   308    122    107 1
   309    123    114 1
   310    124    115 1
   311    148    131 1
   312    149    131 1
   313    150    132 1
   314    151    134 1
   315    152    136 1
   316    153    136 1
   317    154    137 1
   318    155    139 1
   319    156    145 1
   320    178    163 1
   321    179    163 1
   322    180    164 1
   323    181    166 1
   324    182    168 1
   325    183    168 1
   326    184    169 1
   327    185    176 1
   328    186    177 1
   329    211    193 1
   330    212    193 1
   331    213    194 1
   332    214    196 1
   333    215    198 1
   334    216    198 1
   335    217    199 1
   336    218    201 1
   337    219    206 1
   338    242    226 1
   339    243    226 1
   340    244    227 1
   341    245    229 1
   342    246    231 1
   343    247    231 1
   344    248    232 1
   345    249    236 1
   346    250    241 1
   347    276    258 1
   348    277    258 1
   349    278    259 1
   350    279    261 1
   351    280    263 1
   352    281    263 1
   353    282    264 1
   354    283    266 1
   355    284    271 1
   356    308    291 1
   357    309    291 1
   358    310    292 1
   359    311    294 1
   360    312    296 1
   361    313    296 1
   362    314    297 1
   363    315    299 1
   364    316    305 1
   365    340    323 1
   366    341    323 1
   367    342    324 1
   368    343    326 1
   369    344    328 1
   370    345    328 1
   371    346    329 1
   372    347    331 1
   373    348    337 1
   374    371    355 1
   375    372    355 1
   376    373    356 1
   377    374    358 1
   378    375    360 1
   379    376    360 1
   380    377    361 1
   381    378    365 1
   382    379    370 1
   383    125    113 1
   384    126    113 1
   385    187    175 1
   386    188    175 1
   387    220    208 1
   388    221    208 1
   389    285    273 1
   390    286    273 1
   391     31     17 1
   392     32     17 1
   393    157    143 1
   394    158    143 1
   395    317    303 1
   396    318    303 1
   397    349    335 1
   398    350    335 1
   399     62     51 1
   400     63     51 1
   401     64     51 1
   402     94     83 1
   403     95     83 1
   404     96     83 1
   405    251    240 1
   406    252    240 1
   407    253    240 1
   408    380    369 1
   409    381    369 1
   410    382    369 1
   411    167    383 1
   412    189    997 1
   413    391    416 1
   414    424    448 1
   415    456    481 1
   416    489    513 1
   417    521    545 1
   418    553    577 1
   419    585    609 1
   420    617    639 1
   421    647    671 1
   422    709    734 1
   423    742    766 1
   424    774    799 1
   425    807    831 1
   426    839    863 1
   427    871    895 1
   428    903    927 1
   429    935    957 1
   430    965    989 1
   431    383    384 1
   432    383    385 1
   433    383    386 1
   434    386    387 1
   435    387    388 1
   436    388    389 1
   437    388    390 1
   438    389    393 1
   439    390    391 1
   440    390    392 1
   441    392    393 1
   442    393    394 1
   443    394    395 ar
   444    394    404 ar
   445    395    396 ar
   446    396    397 ar
   447    397    398 1
   448    397    404 ar
   449    398    399 2
   450    398    400 am
   451    400    401 1
   452    401    402 2
   453    401    403 2
   454    403    404 1
   455    416    417 1
   456    416    418 1
   457    416    419 1
   458    419    420 1
   459    420    421 1
   460    421    422 1
   461    421    423 1
   462    422    426 1
   463    423    424 1
   464    423    425 1
   465    425    426 1
   466    426    427 1
   467    427    428 am
   468    427    435 1
   469    428    429 2
   470    428    430 am
   471    430    431 am
   472    431    432 2
   473    431    433 1
   474    433    434 1
   475    433    435 2
   476    448    449 1
   477    448    450 1
   478    448    451 1
   479    451    452 1
   480    452    453 1
   481    453    454 1
   482    453    455 1
   483    454    458 1
   484    455    456 1
   485    455    457 1
   486    457    458 1
   487    458    459 1
   488    459    460 ar
   489    459    469 ar
   490    460    461 ar
   491    461    462 ar
   492    462    463 1
   493    462    469 ar
   494    463    464 2
   495    463    465 am
   496    465    466 1
   497    466    467 2
   498    466    468 2
   499    468    469 1
   500    481    482 1
   501    481    483 1
   502    481    484 1
   503    484    485 1
   504    485    486 1
   505    486    487 1
   506    486    488 1
   507    487    491 1
   508    488    489 1
   509    488    490 1
   510    490    491 1
   511    491    492 1
   512    492    493 ar
   513    492    501 ar
   514    493    494 ar
   515    494    495 ar
   516    495    496 ar
   517    495    501 ar
   518    496    497 1
   519    496    498 ar
   520    498    499 ar
   521    499    500 ar
   522    500    501 ar
   523    513    514 1
   524    513    515 1
   525    513    516 1
   526    516    517 1
   527    517    518 1
   528    518    519 1
   529    518    520 1
   530    519    523 1
   531    520    521 1
   532    520    522 1
   533    522    523 1
   534    523    524 1
   535    524    525 ar
   536    524    533 ar
   537    525    526 ar
   538    526    527 ar
   539    527    528 ar
   540    527    533 ar
   541    528    529 1
   542    528    530 ar
   543    530    531 ar
   544    531    532 ar
   545    532    533 ar
   546    545    546 1
   547    545    547 1
   548    545    548 1
   549    548    549 1
   550    549    550 1
   551    550    551 1
   552    550    552 1
   553    551    555 1
   554    552    553 1
   555    552    554 1
   556    554    555 1
   557    555    556 1
   558    556    557 am
   559    556    564 1
   560    557    558 2
   561    557    559 am
   562    559    560 am
   563    560    561 2
   564    560    562 1
   565    562    563 1
   566    562    564 2
   567    577    578 1
   568    577    579 1
   569    577    580 1
   570    580    581 1
   571    581    582 1
   572    582    583 1
   573    582    584 1
   574    583    587 1
   575    584    585 1
   576    584    586 1
   577    586    587 1
   578    587    588 1
   579    588    589 am
   580    588    596 1
   581    589    590 2
   582    589    591 am
   583    591    592 am
   584    592    593 2
   585    592    594 1
   586    594    595 1
   587    594    596 2
   588    609    610 1
   589    609    611 1
   590    609    612 1
   591    612    613 1
   592    613    614 1
   593    614    615 1
   594    614    616 1
   595    615    619 1
   596    616    617 1
   597    616    618 1
   598    618    619 1
   599    619    620 1
   600    620    621 am
   601    620    627 1
   602    621    622 2
   603    621    623 1
   604    623    624 2
   605    624    625 2
   606    624    626 2
   607    626    627 2
   608    639    640 1
   609    639    641 1
   610    639    642 1
   611    642    643 1
   612    643    644 1
   613    644    645 1
   614    644    646 1
   615    645    649 1
   616    646    647 1
   617    646    648 1
   618    648    649 1
   619    649    650 1
   620    650    651 ar
   621    650    659 ar
   622    651    652 ar
   623    652    653 ar
   624    653    654 ar
   625    653    659 ar
   626    654    655 1
   627    654    656 ar
   628    656    657 ar
   629    657    658 ar
   630    658    659 ar
   631    671    672 1
   632    671    673 1
   633    671    674 1
   634    674    675 1
   635    675    676 1
   636    676    677 1
   637    676    678 1
   638    677    681 1
   639    678    679 1
   640    678    680 1
   641    680    681 1
   642    681    682 1
   643    682    683 am
   644    682    689 1
   645    683    684 2
   646    683    685 1
   647    685    686 2
   648    686    687 2
   649    686    688 2
   650    688    689 2
   651    701    702 1
   652    701    703 1
   653    701    704 1
   654    704    705 1
   655    705    706 1
   656    706    707 1
   657    706    708 1
   658    707    711 1
   659    708    709 1
   660    708    710 1
   661    710    711 1
   662    711    712 1
   663    712    713 ar
   664    712    722 ar
   665    713    714 ar
   666    714    715 ar
   667    715    716 1
   668    715    722 ar
   669    716    717 2
   670    716    718 am
   671    718    719 1
   672    719    720 2
   673    719    721 2
   674    721    722 1
   675    734    735 1
   676    734    736 1
   677    734    737 1
   678    737    738 1
   679    738    739 1
   680    739    740 1
   681    739    741 1
   682    740    744 1
   683    741    742 1
   684    741    743 1
   685    743    744 1
   686    744    745 1
   687    745    746 am
   688    745    753 1
   689    746    747 2
   690    746    748 am
   691    748    749 am
   692    749    750 2
   693    749    751 1
   694    751    752 1
   695    751    753 2
   696    766    767 1
   697    766    768 1
   698    766    769 1
   699    769    770 1
   700    770    771 1
   701    771    772 1
   702    771    773 1
   703    772    776 1
   704    773    774 1
   705    773    775 1
   706    775    776 1
   707    776    777 1
   708    777    778 ar
   709    777    787 ar
   710    778    779 ar
   711    779    780 ar
   712    780    781 1
   713    780    787 ar
   714    781    782 2
   715    781    783 am
   716    783    784 1
   717    784    785 2
   718    784    786 2
   719    786    787 1
   720    799    800 1
   721    799    801 1
   722    799    802 1
   723    802    803 1
   724    803    804 1
   725    804    805 1
   726    804    806 1
   727    805    809 1
   728    806    807 1
   729    806    808 1
   730    808    809 1
   731    809    810 1
   732    810    811 ar
   733    810    819 ar
   734    811    812 ar
   735    812    813 ar
   736    813    814 ar
   737    813    819 ar
   738    814    815 1
   739    814    816 ar
   740    816    817 ar
   741    817    818 ar
   742    818    819 ar
   743    831    832 1
   744    831    833 1
   745    831    834 1
   746    834    835 1
   747    835    836 1
   748    836    837 1
   749    836    838 1
   750    837    841 1
   751    838    839 1
   752    838    840 1
   753    840    841 1
   754    841    842 1
   755    842    843 ar
   756    842    851 ar
   757    843    844 ar
   758    844    845 ar
   759    845    846 ar
   760    845    851 ar
   761    846    847 1
   762    846    848 ar
   763    848    849 ar
   764    849    850 ar
   765    850    851 ar
   766    863    864 1
   767    863    865 1
   768    863    866 1
   769    866    867 1
   770    867    868 1
   771    868    869 1
   772    868    870 1
   773    869    873 1
   774    870    871 1
   775    870    872 1
   776    872    873 1
   777    873    874 1
   778    874    875 am
   779    874    882 1
   780    875    876 2
   781    875    877 am
   782    877    878 am
   783    878    879 2
   784    878    880 1
   785    880    881 1
   786    880    882 2
   787    895    896 1
   788    895    897 1
   789    895    898 1
   790    898    899 1
   791    899    900 1
   792    900    901 1
   793    900    902 1
   794    901    905 1
   795    902    903 1
   796    902    904 1
   797    904    905 1
   798    905    906 1
   799    906    907 am
   800    906    914 1
   801    907    908 2
   802    907    909 am
   803    909    910 am
   804    910    911 2
   805    910    912 1
   806    912    913 1
   807    912    914 2
   808    927    928 1
   809    927    929 1
   810    927    930 1
   811    930    931 1
   812    931    932 1
   813    932    933 1
   814    932    934 1
   815    933    937 1
   816    934    935 1
   817    934    936 1
   818    936    937 1
   819    937    938 1
   820    938    939 am
   821    938    945 1
   822    939    940 2
   823    939    941 1
   824    941    942 2
   825    942    943 2
   826    942    944 2
   827    944    945 2
   828    957    958 1
   829    957    959 1
   830    957    960 1
   831    960    961 1
   832    961    962 1
   833    962    963 1
   834    962    964 1
   835    963    967 1
   836    964    965 1
   837    964    966 1
   838    966    967 1
   839    967    968 1
   840    968    969 ar
   841    968    977 ar
   842    969    970 ar
   843    970    971 ar
   844    971    972 ar
   845    971    977 ar
   846    972    973 1
   847    972    974 ar
   848    974    975 ar
   849    975    976 ar
   850    976    977 ar
   851    989    990 1
   852    989    991 1
   853    989    992 1
   854    992    993 1
   855    993    994 1
   856    994    995 1
   857    994    996 1
   858    995    999 1
   859    996    997 1
   860    996    998 1
   861    998    999 1
   862    999   1000 1
   863   1000   1001 am
   864   1000   1007 1
   865   1001   1002 2
   866   1001   1003 1
   867   1003   1004 2
   868   1004   1005 2
   869   1004   1006 2
   870   1006   1007 2
   871    405    387 1
   872    406    387 1
   873    407    388 1
   874    408    390 1
   875    409    392 1
   876    410    392 1
   877    411    393 1
   878    412    395 1
   879    413    400 1
   880    436    420 1
   881    437    420 1
   882    438    421 1
   883    439    423 1
   884    440    425 1
   885    441    425 1
   886    442    426 1
   887    443    430 1
   888    444    435 1
   889    470    452 1
   890    471    452 1
   891    472    453 1
   892    473    455 1
   893    474    457 1
   894    475    457 1
   895    476    458 1
   896    477    460 1
   897    478    465 1
   898    502    485 1
   899    503    485 1
   900    504    486 1
   901    505    488 1
   902    506    490 1
   903    507    490 1
   904    508    491 1
   905    509    493 1
   906    510    499 1
   907    534    517 1
   908    535    517 1
   909    536    518 1
   910    537    520 1
   911    538    522 1
   912    539    522 1
   913    540    523 1
   914    541    525 1
   915    542    531 1
   916    565    549 1
   917    566    549 1
   918    567    550 1
   919    568    552 1
   920    569    554 1
   921    570    554 1
   922    571    555 1
   923    572    559 1
   924    573    564 1
   925    597    581 1
   926    598    581 1
   927    599    582 1
   928    600    584 1
   929    601    586 1
   930    602    586 1
   931    603    587 1
   932    604    591 1
   933    605    596 1
   934    628    613 1
   935    629    613 1
   936    630    614 1
   937    631    616 1
   938    632    618 1
   939    633    618 1
   940    634    619 1
   941    635    626 1
   942    636    627 1
   943    660    643 1
   944    661    643 1
   945    662    644 1
   946    663    646 1
   947    664    648 1
   948    665    648 1
   949    666    649 1
   950    667    651 1
   951    668    657 1
   952    690    675 1
   953    691    675 1
   954    692    676 1
   955    693    678 1
   956    694    680 1
   957    695    680 1
   958    696    681 1
   959    697    688 1
   960    698    689 1
   961    723    705 1
   962    724    705 1
   963    725    706 1
   964    726    708 1
   965    727    710 1
   966    728    710 1
   967    729    711 1
   968    730    713 1
   969    731    718 1
   970    754    738 1
   971    755    738 1
   972    756    739 1
   973    757    741 1
   974    758    743 1
   975    759    743 1
   976    760    744 1
   977    761    748 1
   978    762    753 1
   979    788    770 1
   980    789    770 1
   981    790    771 1
   982    791    773 1
   983    792    775 1
   984    793    775 1
   985    794    776 1
   986    795    778 1
   987    796    783 1
   988    820    803 1
   989    821    803 1
   990    822    804 1
   991    823    806 1
   992    824    808 1
   993    825    808 1
   994    826    809 1
   995    827    811 1
   996    828    817 1
   997    852    835 1
   998    853    835 1
   999    854    836 1
  1000    855    838 1
  1001    856    840 1
  1002    857    840 1
  1003    858    841 1
  1004    859    843 1
  1005    860    849 1
  1006    883    867 1
  1007    884    867 1
  1008    885    868 1
  1009    886    870 1
  1010    887    872 1
  1011    888    872 1
  1012    889    873 1
  1013    890    877 1
  1014    891    882 1
  1015    915    899 1
  1016    916    899 1
  1017    917    900 1
  1018    918    902 1
  1019    919    904 1
  1020    920    904 1
  1021    921    905 1
  1022    922    909 1
  1023    923    914 1
  1024    946    931 1
  1025    947    931 1
  1026    948    932 1
  1027    949    934 1
  1028    950    936 1
  1029    951    936 1
  1030    952    937 1
  1031    953    944 1
  1032    954    945 1
  1033    978    961 1
  1034    979    961 1
  1035    980    962 1
  1036    981    964 1
  1037    982    966 1
  1038    983    966 1
  1039    984    967 1
  1040    985    969 1
  1041    986    975 1
  1042   1008    993 1
  1043   1009    993 1
  1044   1010    994 1
  1045   1011    996 1
  1046   1012    998 1
  1047   1013    998 1
  1048   1014    999 1
  1049   1015   1006 1
  1050   1016   1007 1
  1051    414    402 1
  1052    415    402 1
  1053    479    467 1
  1054    480    467 1
  1055    637    625 1
  1056    638    625 1
  1057    699    687 1
  1058    700    687 1
  1059    732    720 1
  1060    733    720 1
  1061    797    785 1
  1062    798    785 1
  1063    955    943 1
  1064    956    943 1
  1065   1017   1005 1
  1066   1018   1005 1
  1067    511    497 1
  1068    512    497 1
  1069    543    529 1
  1070    544    529 1
  1071    669    655 1
  1072    670    655 1
  1073    829    815 1
  1074    830    815 1
  1075    861    847 1
  1076    862    847 1
  1077    987    973 1
  1078    988    973 1
  1079    445    434 1
  1080    446    434 1
  1081    447    434 1
  1082    574    563 1
  1083    575    563 1
  1084    576    563 1
  1085    606    595 1
  1086    607    595 1
  1087    608    595 1
  1088    763    752 1
  1089    764    752 1
  1090    765    752 1
  1091    892    881 1
  1092    893    881 1
  1093    894    881 1
  1094    924    913 1
  1095    925    913 1
  1096    926    913 1
  1097    679   1019 1
  1098    701   1633 1
  1099   1027   1052 1
  1100   1060   1084 1
  1101   1092   1117 1
  1102   1125   1149 1
  1103   1157   1181 1
  1104   1189   1213 1
  1105   1221   1245 1
  1106   1253   1275 1
  1107   1283   1307 1
  1108   1345   1370 1
  1109   1378   1402 1
  1110   1410   1435 1
  1111   1443   1467 1
  1112   1475   1499 1
  1113   1507   1531 1
  1114   1539   1563 1
  1115   1571   1593 1
  1116   1601   1625 1
  1117   1019   1020 1
  1118   1019   1021 1
  1119   1019   1022 1
  1120   1022   1023 1
  1121   1023   1024 1
  1122   1024   1025 1
  1123   1024   1026 1
  1124   1025   1029 1
  1125   1026   1027 1
  1126   1026   1028 1
  1127   1028   1029 1
  1128   1029   1030 1
  1129   1030   1031 ar
  1130   1030   1040 ar
  1131   1031   1032 ar
  1132   1032   1033 ar
  1133   1033   1034 1
  1134   1033   1040 ar
  1135   1034   1035 2
  1136   1034   1036 am
  1137   1036   1037 1
  1138   1037   1038 2
  1139   1037   1039 2
  1140   1039   1040 1
  1141   1052   1053 1
  1142   1052   1054 1
  1143   1052   1055 1
  1144   1055   1056 1
  1145   1056   1057 1
  1146   1057   1058 1
  1147   1057   1059 1
  1148   1058   1062 1
  1149   1059   1060 1
  1150   1059   1061 1
  1151   1061   1062 1
  1152   1062   1063 1
  1153   1063   1064 am
  1154   1063   1071 1
  1155   1064   1065 2
  1156   1064   1066 am
  1157   1066   1067 am
  1158   1067   1068 2
  1159   1067   1069 1
  1160   1069   1070 1
  1161   1069   1071 2
  1162   1084   1085 1
  1163   1084   1086 1
  1164   1084   1087 1
  1165   1087   1088 1
  1166   1088   1089 1
  1167   1089   1090 1
  1168   1089   1091 1
  1169   1090   1094 1
  1170   1091   1092 1
  1171   1091   1093 1
  1172   1093   1094 1
  1173   1094   1095 1
  1174   1095   1096 ar
  1175   1095   1105 ar
  1176   1096   1097 ar
  1177   1097   1098 ar
  1178   1098   1099 1
  1179   1098   1105 ar
  1180   1099   1100 2
  1181   1099   1101 am
  1182   1101   1102 1
  1183   1102   1103 2
  1184   1102   1104 2
  1185   1104   1105 1
  1186   1117   1118 1
  1187   1117   1119 1
  1188   1117   1120 1
  1189   1120   1121 1
  1190   1121   1122 1
  1191   1122   1123 1
  1192   1122   1124 1
  1193   1123   1127 1
  1194   1124   1125 1
  1195   1124   1126 1
  1196   1126   1127 1
  1197   1127   1128 1
  1198   1128   1129 ar
  1199   1128   1137 ar
  1200   1129   1130 ar
  1201   1130   1131 ar
  1202   1131   1132 ar
  1203   1131   1137 ar
  1204   1132   1133 1
  1205   1132   1134 ar
  1206   1134   1135 ar
  1207   1135   1136 ar
  1208   1136   1137 ar
  1209   1149   1150 1
  1210   1149   1151 1
  1211   1149   1152 1
  1212   1152   1153 1
  1213   1153   1154 1
  1214   1154   1155 1
  1215   1154   1156 1
  1216   1155   1159 1
  1217   1156   1157 1
  1218   1156   1158 1
  1219   1158   1159 1
  1220   1159   1160 1
  1221   1160   1161 ar
  1222   1160   1169 ar
  1223   1161   1162 ar
  1224   1162   1163 ar
  1225   1163   1164 ar
  1226   1163   1169 ar
  1227   1164   1165 1
  1228   1164   1166 ar
  1229   1166   1167 ar
  1230   1167   1168 ar
  1231   1168   1169 ar
  1232   1181   1182 1
  1233   1181   1183 1
  1234   1181   1184 1
  1235   1184   1185 1
  1236   1185   1186 1
  1237   1186   1187 1
  1238   1186   1188 1
  1239   1187   1191 1
  1240   1188   1189 1
  1241   1188   1190 1
  1242   1190   1191 1
  1243   1191   1192 1
  1244   1192   1193 am
  1245   1192   1200 1
  1246   1193   1194 2
  1247   1193   1195 am
  1248   1195   1196 am
  1249   1196   1197 2
  1250   1196   1198 1
  1251   1198   1199 1
  1252   1198   1200 2
  1253   1213   1214 1
  1254   1213   1215 1
  1255   1213   1216 1
  1256   1216   1217 1
  1257   1217   1218 1
  1258   1218   1219 1
  1259   1218   1220 1
  1260   1219   1223 1
  1261   1220   1221 1
  1262   1220   1222 1
  1263   1222   1223 1
  1264   1223   1224 1
  1265   1224   1225 am
  1266   1224   1232 1
  1267   1225   1226 2
  1268   1225   1227 am
  1269   1227   1228 am
  1270   1228   1229 2
  1271   1228   1230 1
  1272   1230   1231 1
  1273   1230   1232 2
  1274   1245   1246 1
  1275   1245   1247 1
  1276   1245   1248 1
  1277   1248   1249 1
  1278   1249   1250 1
  1279   1250   1251 1
  1280   1250   1252 1
  1281   1251   1255 1
  1282   1252   1253 1
  1283   1252   1254 1
  1284   1254   1255 1
  1285   1255   1256 1
  1286   1256   1257 am
  1287   1256   1263 1
  1288   1257   1258 2
  1289   1257   1259 1
  1290   1259   1260 2
  1291   1260   1261 2
  1292   1260   1262 2
  1293   1262   1263 2
  1294   1275   1276 1
  1295   1275   1277 1
  1296   1275   1278 1
  1297   1278   1279 1
  1298   1279   1280 1
  1299   1280   1281 1
  1300   1280   1282 1
  1301   1281   1285 1
  1302   1282   1283 1
  1303   1282   1284 1
  1304   1284   1285 1
  1305   1285   1286 1
  1306   1286   1287 ar
  1307   1286   1295 ar
  1308   1287   1288 ar
  1309   1288   1289 ar
  1310   1289   1290 ar
  1311   1289   1295 ar
  1312   1290   1291 1
  1313   1290   1292 ar
  1314   1292   1293 ar
  1315   1293   1294 ar
  1316   1294   1295 ar
  1317   1307   1308 1
  1318   1307   1309 1
  1319   1307   1310 1
  1320   1310   1311 1
  1321   1311   1312 1
  1322   1312   1313 1
  1323   1312   1314 1
  1324   1313   1317 1
  1325   1314   1315 1
  1326   1314   1316 1
  1327   1316   1317 1
  1328   1317   1318 1
  1329   1318   1319 am
  1330   1318   1325 1
  1331   1319   1320 2
  1332   1319   1321 1
  1333   1321   1322 2
  1334   1322   1323 2
  1335   1322   1324 2
  1336   1324   1325 2
  1337   1337   1338 1
  1338   1337   1339 1
  1339   1337   1340 1
  1340   1340   1341 1
  1341   1341   1342 1
  1342   1342   1343 1
  1343   1342   1344 1
  1344   1343   1347 1
  1345   1344   1345 1
  1346   1344   1346 1
  1347   1346   1347 1
  1348   1347   1348 1
  1349   1348   1349 ar
  1350   1348   1358 ar
  1351   1349   1350 ar
  1352   1350   1351 ar
  1353   1351   1352 1
  1354   1351   1358 ar
  1355   1352   1353 2
  1356   1352   1354 am
  1357   1354   1355 1
  1358   1355   1356 2
  1359   1355   1357 2
  1360   1357   1358 1
  1361   1370   1371 1
  1362   1370   1372 1
  1363   1370   1373 1
  1364   1373   1374 1
  1365   1374   1375 1
  1366   1375   1376 1
  1367   1375   1377 1
  1368   1376   1380 1
  1369   1377   1378 1
  1370   1377   1379 1
  1371   1379   1380 1
  1372   1380   1381 1
  1373   1381   1382 am
  1374   1381   1389 1
  1375   1382   1383 2
  1376   1382   1384 am
  1377   1384   1385 am
  1378   1385   1386 2
  1379   1385   1387 1
  1380   1387   1388 1
  1381   1387   1389 2
  1382   1402   1403 1
  1383   1402   1404 1
  1384   1402   1405 1
  1385   1405   1406 1
  1386   1406   1407 1
  1387   1407   1408 1
  1388   1407   1409 1
  1389   1408   1412 1
  1390   1409   1410 1
  1391   1409   1411 1
  1392   1411   1412 1
  1393   1412   1413 1
  1394   1413   1414 ar
  1395   1413   1423 ar
  1396   1414   1415 ar
  1397   1415   1416 ar
  1398   1416   1417 1
  1399   1416   1423 ar
  1400   1417   1418 2
  1401   1417   1419 am
  1402   1419   1420 1
  1403   1420   1421 2
  1404   1420   1422 2
  1405   1422   1423 1
  1406   1435   1436 1
  1407   1435   1437 1
  1408   1435   1438 1
  1409   1438   1439 1
  1410   1439   1440 1
  1411   1440   1441 1
  1412   1440   1442 1
  1413   1441   1445 1
  1414   1442   1443 1
  1415   1442   1444 1
  1416   1444   1445 1
  1417   1445   1446 1
  1418   1446   1447 ar
  1419   1446   1455 ar
  1420   1447   1448 ar
  1421   1448   1449 ar
  1422   1449   1450 ar
  1423   1449   1455 ar
  1424   1450   1451 1
  1425   1450   1452 ar
  1426   1452   1453 ar
  1427   1453   1454 ar
  1428   1454   1455 ar
  1429   1467   1468 1
  1430   1467   1469 1
  1431   1467   1470 1
  1432   1470   1471 1
  1433   1471   1472 1
  1434   1472   1473 1
  1435   1472   1474 1
  1436   1473   1477 1
  1437   1474   1475 1
  1438   1474   1476 1
  1439   1476   1477 1
  1440   1477   1478 1
  1441   1478   1479 ar
  1442   1478   1487 ar
  1443   1479   1480 ar
  1444   1480   1481 ar
  1445   1481   1482 ar
  1446   1481   1487 ar
  1447   1482   1483 1
  1448   1482   1484 ar
  1449   1484   1485 ar
  1450   1485   1486 ar
  1451   1486   1487 ar
  1452   1499   1500 1
  1453   1499   1501 1
  1454   1499   1502 1
  1455   1502   1503 1
  1456   1503   1504 1
  1457   1504   1505 1
  1458   1504   1506 1
  1459   1505   1509 1
  1460   1506   1507 1
  1461   1506   1508 1
  1462   1508   1509 1
  1463   1509   1510 1
  1464   1510   1511 am
  1465   1510   1518 1
  1466   1511   1512 2
  1467   1511   1513 am
  1468   1513   1514 am
  1469   1514   1515 2
  1470   1514   1516 1
  1471   1516   1517 1
  1472   1516   1518 2
  1473   1531   1532 1
  1474   1531   1533 1
  1475   1531   1534 1
  1476   1534   1535 1
  1477   1535   1536 1
  1478   1536   1537 1
  1479   1536   1538 1
  1480   1537   1541 1
  1481   1538   1539 1
  1482   1538   1540 1
  1483   1540   1541 1
  1484   1541   1542 1
  1485   1542   1543 am
  1486   1542   1550 1
  1487   1543   1544 2
  1488   1543   1545 am
  1489   1545   1546 am
  1490   1546   1547 2
  1491   1546   1548 1
  1492   1548   1549 1
  1493   1548   1550 2
  1494   1563   1564 1
  1495   1563   1565 1
  1496   1563   1566 1
  1497   1566   1567 1
  1498   1567   1568 1
  1499   1568   1569 1
  1500   1568   1570 1
  1501   1569   1573 1
  1502   1570   1571 1
  1503   1570   1572 1
  1504   1572   1573 1
  1505   1573   1574 1
  1506   1574   1575 am
  1507   1574   1581 1
  1508   1575   1576 2
  1509   1575   1577 1
  1510   1577   1578 2
  1511   1578   1579 2
  1512   1578   1580 2
  1513   1580   1581 2
  1514   1593   1594 1
  1515   1593   1595 1
  1516   1593   1596 1
  1517   1596   1597 1
  1518   1597   1598 1
  1519   1598   1599 1
  1520   1598   1600 1
  1521   1599   1603 1
  1522   1600   1601 1
  1523   1600   1602 1
  1524   1602   1603 1
  1525   1603   1604 1
  1526   1604   1605 ar
  1527   1604   1613 ar
  1528   1605   1606 ar
  1529   1606   1607 ar
  1530   1607   1608 ar
  1531   1607   1613 ar
  1532   1608   1609 1
  1533   1608   1610 ar
  1534   1610   1611 ar
  1535   1611   1612 ar
  1536   1612   1613 ar
  1537   1625   1626 1
  1538   1625   1627 1
  1539   1625   1628 1
  1540   1628   1629 1
  1541   1629   1630 1
  1542   1630   1631 1
  1543   1630   1632 1
  1544   1631   1635 1
  1545   1632   1633 1
  1546   1632   1634 1
  1547   1634   1635 1
  1548   1635   1636 1
  1549   1636   1637 am
  1550   1636   1643 1
  1551   1637   1638 2
  1552   1637   1639 1
  1553   1639   1640 2
  1554   1640   1641 2
  1555   1640   1642 2
  1556   1642   1643 2
  1557   1041   1023 1
  1558   1042   1023 1
  1559   1043   1024 1
  1560   1044   1026 1
  1561   1045   1028 1
  1562   1046   1028 1
  1563   1047   1029 1
  1564   1048   1031 1
  1565   1049   1036 1
  1566   1072   1056 1
  1567   1073   1056 1
  1568   1074   1057 1
  1569   1075   1059 1
  1570   1076   1061 1
  1571   1077   1061 1
  1572   1078   1062 1
  1573   1079   1066 1
  1574   1080   1071 1
  1575   1106   1088 1
  1576   1107   1088 1
  1577   1108   1089 1
  1578   1109   1091 1
  1579   1110   1093 1
  1580   1111   1093 1
  1581   1112   1094 1
  1582   1113   1096 1
  1583   1114   1101 1
  1584   1138   1121 1
  1585   1139   1121 1
  1586   1140   1122 1
  1587   1141   1124 1
  1588   1142   1126 1
  1589   1143   1126 1
  1590   1144   1127 1
  1591   1145   1129 1
  1592   1146   1135 1
  1593   1170   1153 1
  1594   1171   1153 1
  1595   1172   1154 1
  1596   1173   1156 1
  1597   1174   1158 1
  1598   1175   1158 1
  1599   1176   1159 1
  1600   1177   1161 1
  1601   1178   1167 1
  1602   1201   1185 1
  1603   1202   1185 1
  1604   1203   1186 1
  1605   1204   1188 1
  1606   1205   1190 1
  1607   1206   1190 1
  1608   1207   1191 1
  1609   1208   1195 1
  1610   1209   1200 1
  1611   1233   1217 1
  1612   1234   1217 1
  1613   1235   1218 1
  1614   1236   1220 1
  1615   1237   1222 1
  1616   1238   1222 1
  1617   1239   1223 1
  1618   1240   1227 1
  1619   1241   1232 1
  1620   1264   1249 1
  1621   1265   1249 1
  1622   1266   1250 1
  1623   1267   1252 1
  1624   1268   1254 1
  1625   1269   1254 1
  1626   1270   1255 1
  1627   1271   1262 1
  1628   1272   1263 1
  1629   1296   1279 1
  1630   1297   1279 1
  1631   1298   1280 1
  1632   1299   1282 1
  1633   1300   1284 1
  1634   1301   1284 1
  1635   1302   1285 1
  1636   1303   1287 1
  1637   1304   1293 1
  1638   1326   1311 1
  1639   1327   1311 1
  1640   1328   1312 1
  1641   1329   1314 1
  1642   1330   1316 1
  1643   1331   1316 1
  1644   1332   1317 1
  1645   1333   1324 1
  1646   1334   1325 1
  1647   1359   1341 1
  1648   1360   1341 1
  1649   1361   1342 1
  1650   1362   1344 1
  1651   1363   1346 1
  1652   1364   1346 1
  1653   1365   1347 1
  1654   1366   1349 1
  1655   1367   1354 1
  1656   1390   1374 1
  1657   1391   1374 1
  1658   1392   1375 1
  1659   1393   1377 1
  1660   1394   1379 1
  1661   1395   1379 1
  1662   1396   1380 1
  1663   1397   1384 1
  1664   1398   1389 1
  1665   1424   1406 1
  1666   1425   1406 1
  1667   1426   1407 1
  1668   1427   1409 1
  1669   1428   1411 1
  1670   1429   1411 1
  1671   1430   1412 1
  1672   1431   1414 1
  1673   1432   1419 1
  1674   1456   1439 1
  1675   1457   1439 1
  1676   1458   1440 1
  1677   1459   1442 1
  1678   1460   1444 1
  1679   1461   1444 1
  1680   1462   1445 1
  1681   1463   1447 1
  1682   1464   1453 1
  1683   1488   1471 1
  1684   1489   1471 1
  1685   1490   1472 1
  1686   1491   1474 1
  1687   1492   1476 1
  1688   1493   1476 1
  1689   1494   1477 1
  1690   1495   1479 1
  1691   1496   1485 1
  1692   1519   1503 1
  1693   1520   1503 1
  1694   1521   1504 1
  1695   1522   1506 1
  1696   1523   1508 1
  1697   1524   1508 1
  1698   1525   1509 1
  1699   1526   1513 1
  1700   1527   1518 1
  1701   1551   1535 1
  1702   1552   1535 1
  1703   1553   1536 1
  1704   1554   1538 1
  1705   1555   1540 1
  1706   1556   1540 1
  1707   1557   1541 1
  1708   1558   1545 1
  1709   1559   1550 1
  1710   1582   1567 1
  1711   1583   1567 1
  1712   1584   1568 1
  1713   1585   1570 1
  1714   1586   1572 1
  1715   1587   1572 1
  1716   1588   1573 1
  1717   1589   1580 1
  1718   1590   1581 1
  1719   1614   1597 1
  1720   1615   1597 1
  1721   1616   1598 1
  1722   1617   1600 1
  1723   1618   1602 1
  1724   1619   1602 1
  1725   1620   1603 1
  1726   1621   1605 1
  1727   1622   1611 1
  1728   1644   1629 1
  1729   1645   1629 1
  1730   1646   1630 1
  1731   1647   1632 1
  1732   1648   1634 1
  1733   1649   1634 1
  1734   1650   1635 1
  1735   1651   1642 1
  1736   1652   1643 1
  1737   1050   1038 1
  1738   1051   1038 1
  1739   1115   1103 1
  1740   1116   1103 1
  1741   1273   1261 1
  1742   1274   1261 1
  1743   1335   1323 1
  1744   1336   1323 1
  1745   1368   1356 1
  1746   1369   1356 1
  1747   1433   1421 1
  1748   1434   1421 1
  1749   1591   1579 1
  1750   1592   1579 1
  1751   1653   1641 1
  1752   1654   1641 1
  1753   1147   1133 1
  1754   1148   1133 1
  1755   1179   1165 1
  1756   1180   1165 1
  1757   1305   1291 1
  1758   1306   1291 1
  1759   1465   1451 1
  1760   1466   1451 1
  1761   1497   1483 1
  1762   1498   1483 1
  1763   1623   1609 1
  1764   1624   1609 1
  1765   1081   1070 1
  1766   1082   1070 1
  1767   1083   1070 1
  1768   1210   1199 1
  1769   1211   1199 1
  1770   1212   1199 1
  1771   1242   1231 1
  1772   1243   1231 1
  1773   1244   1231 1
  1774   1399   1388 1
  1775   1400   1388 1
  1776   1401   1388 1
  1777   1528   1517 1
  1778   1529   1517 1
  1779   1530   1517 1
  1780   1560   1549 1
  1781   1561   1549 1
  1782   1562   1549 1
  1783   1315   1655 1
  1784   1337   2079 1
  1785   1663   1688 1
  1786   1696   1720 1
  1787   1728   1753 1
  1788   1761   1785 1
  1789   1793   1817 1
  1790   1825   1849 1
  1791   1889   1913 1
  1792   1921   1945 1
  1793   1953   1977 1
  1794   1985   2009 1
  1795   2017   2039 1
  1796   2047   2071 1
  1797   1655   1656 1
  1798   1655   1657 1
  1799   1655   1658 1
  1800   1658   1659 1
  1801   1659   1660 1
  1802   1660   1661 1
  1803   1660   1662 1
  1804   1661   1665 1
  1805   1662   1663 1
  1806   1662   1664 1
  1807   1664   1665 1
  1808   1665   1666 1
  1809   1666   1667 ar
  1810   1666   1676 ar
  1811   1667   1668 ar
  1812   1668   1669 ar
  1813   1669   1670 1
  1814   1669   1676 ar
  1815   1670   1671 2
  1816   1670   1672 am
  1817   1672   1673 1
  1818   1673   1674 2
  1819   1673   1675 2
  1820   1675   1676 1
  1821   1688   1689 1
  1822   1688   1690 1
  1823   1688   1691 1
  1824   1691   1692 1
  1825   1692   1693 1
  1826   1693   1694 1
  1827   1693   1695 1
  1828   1694   1698 1
  1829   1695   1696 1
  1830   1695   1697 1
  1831   1697   1698 1
  1832   1698   1699 1
  1833   1699   1700 am
  1834   1699   1707 1
  1835   1700   1701 2
  1836   1700   1702 am
  1837   1702   1703 am
  1838   1703   1704 2
  1839   1703   1705 1
  1840   1705   1706 1
  1841   1705   1707 2
  1842   1720   1721 1
  1843   1720   1722 1
  1844   1720   1723 1
  1845   1723   1724 1
  1846   1724   1725 1
  1847   1725   1726 1
  1848   1725   1727 1
  1849   1726   1730 1
  1850   1727   1728 1
  1851   1727   1729 1
  1852   1729   1730 1
  1853   1730   1731 1
  1854   1731   1732 ar
  1855   1731   1741 ar
  1856   1732   1733 ar
  1857   1733   1734 ar
  1858   1734   1735 1
  1859   1734   1741 ar
  1860   1735   1736 2
  1861   1735   1737 am
  1862   1737   1738 1
  1863   1738   1739 2
  1864   1738   1740 2
  1865   1740   1741 1
  1866   1753   1754 1
  1867   1753   1755 1
  1868   1753   1756 1
  1869   1756   1757 1
  1870   1757   1758 1
  1871   1758   1759 1
  1872   1758   1760 1
  1873   1759   1763 1
  1874   1760   1761 1
  1875   1760   1762 1
  1876   1762   1763 1
  1877   1763   1764 1
  1878   1764   1765 ar
  1879   1764   1773 ar
  1880   1765   1766 ar
  1881   1766   1767 ar
  1882   1767   1768 ar
  1883   1767   1773 ar
  1884   1768   1769 1
  1885   1768   1770 ar
  1886   1770   1771 ar
  1887   1771   1772 ar
  1888   1772   1773 ar
  1889   1785   1786 1
  1890   1785   1787 1
  1891   1785   1788 1
  1892   1788   1789 1
  1893   1789   1790 1
  1894   1790   1791 1
  1895   1790   1792 1
  1896   1791   1795 1
  1897   1792   1793 1
  1898   1792   1794 1
  1899   1794   1795 1
  1900   1795   1796 1
  1901   1796   1797 ar
  1902   1796   1805 ar
  1903   1797   1798 ar
  1904   1798   1799 ar
  1905   1799   1800 ar
  1906   1799   1805 ar
  1907   1800   1801 1
  1908   1800   1802 ar
  1909   1802   1803 ar
  1910   1803   1804 ar
  1911   1804   1805 ar
  1912   1817   1818 1
  1913   1817   1819 1
  1914   1817   1820 1
  1915   1820   1821 1
  1916   1821   1822 1
  1917   1822   1823 1
  1918   1822   1824 1
  1919   1823   1827 1
  1920   1824   1825 1
  1921   1824   1826 1
  1922   1826   1827 1
  1923   1827   1828 1
  1924   1828   1829 am
  1925   1828   1836 1
  1926   1829   1830 2
  1927   1829   1831 am
  1928   1831   1832 am
  1929   1832   1833 2
  1930   1832   1834 1
  1931   1834   1835 1
  1932   1834   1836 2
  1933   1849   1850 1
  1934   1849   1851 1
  1935   1849   1852 1
  1936   1852   1853 1
  1937   1853   1854 1
  1938   1854   1855 1
  1939   1854   1856 1
  1940   1855   1859 1
  1941   1856   1857 1
  1942   1856   1858 1
  1943   1858   1859 1
  1944   1859   1860 1
  1945   1860   1861 am
  1946   1860   1868 1
  1947   1861   1862 2
  1948   1861   1863 am
  1949   1863   1864 am
  1950   1864   1865 2
  1951   1864   1866 1
  1952   1866   1867 1
  1953   1866   1868 2
  1954   1881   1882 1
  1955   1881   1883 1
  1956   1881   1884 1
  1957   1884   1885 1
  1958   1885   1886 1
  1959   1886   1887 1
  1960   1886   1888 1
  1961   1887   1891 1
  1962   1888   1889 1
  1963   1888   1890 1
  1964   1890   1891 1
  1965   1891   1892 1
  1966   1892   1893 ar
  1967   1892   1901 ar
  1968   1893   1894 ar
  1969   1894   1895 ar
  1970   1895   1896 ar
  1971   1895   1901 ar
  1972   1896   1897 1
  1973   1896   1898 ar
  1974   1898   1899 ar
  1975   1899   1900 ar
  1976   1900   1901 ar
  1977   1913   1914 1
  1978   1913   1915 1
  1979   1913   1916 1
  1980   1916   1917 1
  1981   1917   1918 1
  1982   1918   1919 1
  1983   1918   1920 1
  1984   1919   1923 1
  1985   1920   1921 1
  1986   1920   1922 1
  1987   1922   1923 1
  1988   1923   1924 1
  1989   1924   1925 ar
  1990   1924   1933 ar
  1991   1925   1926 ar
  1992   1926   1927 ar
  1993   1927   1928 ar
  1994   1927   1933 ar
  1995   1928   1929 1
  1996   1928   1930 ar
  1997   1930   1931 ar
  1998   1931   1932 ar
  1999   1932   1933 ar
  2000   1945   1946 1
  2001   1945   1947 1
  2002   1945   1948 1
  2003   1948   1949 1
  2004   1949   1950 1
  2005   1950   1951 1
  2006   1950   1952 1
  2007   1951   1955 1
  2008   1952   1953 1
  2009   1952   1954 1
  2010   1954   1955 1
  2011   1955   1956 1
  2012   1956   1957 am
  2013   1956   1964 1
  2014   1957   1958 2
  2015   1957   1959 am
  2016   1959   1960 am
  2017   1960   1961 2
  2018   1960   1962 1
  2019   1962   1963 1
  2020   1962   1964 2
  2021   1977   1978 1
  2022   1977   1979 1
  2023   1977   1980 1
  2024   1980   1981 1
  2025   1981   1982 1
  2026   1982   1983 1
  2027   1982   1984 1
  2028   1983   1987 1
  2029   1984   1985 1
  2030   1984   1986 1
  2031   1986   1987 1
  2032   1987   1988 1
  2033   1988   1989 am
  2034   1988   1996 1
  2035   1989   1990 2
  2036   1989   1991 am
  2037   1991   1992 am
  2038   1992   1993 2
  2039   1992   1994 1
  2040   1994   1995 1
  2041   1994   1996 2
  2042   2009   2010 1
  2043   2009   2011 1
  2044   2009   2012 1
  2045   2012   2013 1
  2046   2013   2014 1
  2047   2014   2015 1
  2048   2014   2016 1
  2049   2015   2019 1
  2050   2016   2017 1
  2051   2016   2018 1
  2052   2018   2019 1
  2053   2019   2020 1
  2054   2020   2021 am
  2055   2020   2027 1
  2056   2021   2022 2
  2057   2021   2023 1
  2058   2023   2024 2
  2059   2024   2025 2
  2060   2024   2026 2
  2061   2026   2027 2
  2062   2039   2040 1
  2063   2039   2041 1
  2064   2039   2042 1
  2065   2042   2043 1
  2066   2043   2044 1
  2067   2044   2045 1
  2068   2044   2046 1
  2069   2045   2049 1
  2070   2046   2047 1
  2071   2046   2048 1
  2072   2048   2049 1
  2073   2049   2050 1
  2074   2050   2051 ar
  2075   2050   2059 ar
  2076   2051   2052 ar
  2077   2052   2053 ar
  2078   2053   2054 ar
  2079   2053   2059 ar
  2080   2054   2055 1
  2081   2054   2056 ar
  2082   2056   2057 ar
  2083   2057   2058 ar
  2084   2058   2059 ar
  2085   2071   2072 1
  2086   2071   2073 1
  2087   2071   2074 1
  2088   2074   2075 1
  2089   2075   2076 1
  2090   2076   2077 1
  2091   2076   2078 1
  2092   2077   2081 1
  2093   2078   2079 1
  2094   2078   2080 1
  2095   2080   2081 1
  2096   2081   2082 1
  2097   2082   2083 am
  2098   2082   2089 1
  2099   2083   2084 2
  2100   2083   2085 1
  2101   2085   2086 2
  2102   2086   2087 2
  2103   2086   2088 2
  2104   2088   2089 2
  2105   1677   1659 1
  2106   1678   1659 1
  2107   1679   1660 1
  2108   1680   1662 1
  2109   1681   1664 1
  2110   1682   1664 1
  2111   1683   1665 1
  2112   1684   1667 1
  2113   1685   1672 1
  2114   1708   1692 1
  2115   1709   1692 1
  2116   1710   1693 1
  2117   1711   1695 1
  2118   1712   1697 1
  2119   1713   1697 1
  2120   1714   1698 1
  2121   1715   1702 1
  2122   1716   1707 1
  2123   1742   1724 1
  2124   1743   1724 1
  2125   1744   1725 1
  2126   1745   1727 1
  2127   1746   1729 1
  2128   1747   1729 1
  2129   1748   1730 1
  2130   1749   1732 1
  2131   1750   1737 1
  2132   1774   1757 1
  2133   1775   1757 1
  2134   1776   1758 1
  2135   1777   1760 1
  2136   1778   1762 1
  2137   1779   1762 1
  2138   1780   1763 1
  2139   1781   1765 1
  2140   1782   1771 1
  2141   1806   1789 1
  2142   1807   1789 1
  2143   1808   1790 1
  2144   1809   1792 1
  2145   1810   1794 1
  2146   1811   1794 1
  2147   1812   1795 1
  2148   1813   1797 1
  2149   1814   1803 1
  2150   1837   1821 1
  2151   1838   1821 1
  2152   1839   1822 1
  2153   1840   1824 1
  2154   1841   1826 1
  2155   1842   1826 1
  2156   1843   1827 1
  2157   1844   1831 1
  2158   1845   1836 1
  2159   1869   1853 1
  2160   1870   1853 1
  2161   1871   1854 1
  2162   1872   1856 1
  2163   1873   1858 1
  2164   1874   1858 1
  2165   1875   1859 1
  2166   1876   1863 1
  2167   1877   1868 1
  2168   1902   1885 1
  2169   1903   1885 1
  2170   1904   1886 1
  2171   1905   1888 1
  2172   1906   1890 1
  2173   1907   1890 1
  2174   1908   1891 1
  2175   1909   1893 1
  2176   1910   1899 1
  2177   1934   1917 1
  2178   1935   1917 1
  2179   1936   1918 1
  2180   1937   1920 1
  2181   1938   1922 1
  2182   1939   1922 1
  2183   1940   1923 1
  2184   1941   1925 1
  2185   1942   1931 1
  2186   1965   1949 1
  2187   1966   1949 1
  2188   1967   1950 1
  2189   1968   1952 1
  2190   1969   1954 1
  2191   1970   1954 1
  2192   1971   1955 1
  2193   1972   1959 1
  2194   1973   1964 1
  2195   1997   1981 1
  2196   1998   1981 1
  2197   1999   1982 1
  2198   2000   1984 1
  2199   2001   1986 1
  2200   2002   1986 1
  2201   2003   1987 1
  2202   2004   1991 1
  2203   2005   1996 1
  2204   2028   2013 1
  2205   2029   2013 1
  2206   2030   2014 1
  2207   2031   2016 1
  2208   2032   2018 1
  2209   2033   2018 1
  2210   2034   2019 1
  2211   2035   2026 1
  2212   2036   2027 1
  2213   2060   2043 1
  2214   2061   2043 1
  2215   2062   2044 1
  2216   2063   2046 1
  2217   2064   2048 1
  2218   2065   2048 1
  2219   2066   2049 1
  2220   2067   2051 1
  2221   2068   2057 1
  2222   2090   2075 1
  2223   2091   2075 1
  2224   2092   2076 1
  2225   2093   2078 1
  2226   2094   2080 1
  2227   2095   2080 1
  2228   2096   2081 1
  2229   2097   2088 1
  2230   2098   2089 1
  2231   1686   1674 1
  2232   1687   1674 1
  2233   1751   1739 1
  2234   1752   1739 1
  2235   2037   2025 1
  2236   2038   2025 1
  2237   2099   2087 1
  2238   2100   2087 1
  2239   1783   1769 1
  2240   1784   1769 1
  2241   1815   1801 1
  2242   1816   1801 1
  2243   1911   1897 1
  2244   1912   1897 1
  2245   1943   1929 1
  2246   1944   1929 1
  2247   2069   2055 1
  2248   2070   2055 1
  2249   1717   1706 1
  2250   1718   1706 1
  2251   1719   1706 1
  2252   1846   1835 1
  2253   1847   1835 1
  2254   1848   1835 1
  2255   1878   1867 1
  2256   1879   1867 1
  2257   1880   1867 1
  2258   1974   1963 1
  2259   1975   1963 1
  2260   1976   1963 1
  2261   2006   1995 1
  2262   2007   1995 1
  2263   2008   1995 1
@<TRIPOS>MOLECULE
dna-seg-17-bp33
2098 2261 1 0 0
BIOPOLYMER
NO_CHARGES


@<TRIPOS>ATOM
      1 P         -6.5534     6.3500  1846.5455 P.3      568 DC      0.0000
      2 OP1       -7.6263     6.2576  1845.4776 O.co2    568 DC      0.0000
      3 OP2       -6.4865     7.6263  1847.2805 O.co2    568 DC      0.0000
      4 O5'       -6.6024     4.9445  1847.3715 O.3      568 DC      0.0000
      5 C5'       -6.2772     3.9323  1846.3493 C.3      568 DC      0.0000
      6 C4'       -6.2296     2.6021  1847.0458 C.3      568 DC      0.0000
      7 O4'       -4.9269     2.1717  1847.2927 O.3      568 DC      0.0000
      8 C3'       -7.0354     2.5187  1848.3373 C.3      568 DC      0.0000
      9 O3'       -7.9865     1.4652  1848.2576 O.3      568 DC      0.0000
     10 C2'       -5.9259     2.4150  1849.3860 C.3      568 DC      0.0000
     11 C1'       -4.8117     1.7396  1848.6896 C.3      568 DC      0.0000
     12 N1        -3.4526     2.1784  1849.0217 N.am     568 DC      0.0000
     13 C2        -2.5315     1.1651  1849.2775 C.2      568 DC      0.0000
     14 O2        -2.8677    -0.0231  1849.2820 O.2      568 DC      0.0000
     15 N3        -1.2391     1.5393  1849.5513 N.2      568 DC      0.0000
     16 C4        -0.8598     2.8494  1849.5414 C.2      568 DC      0.0000
     17 N4         0.4130     3.1104  1849.8183 N.pl3    568 DC      0.0000
     18 C5        -1.8010     3.8649  1849.2634 C.2      568 DC      0.0000
     19 C6        -3.0668     3.4812  1848.9986 C.2      568 DC      0.0000
     20 H5'       -7.0450     3.9220  1845.5756 H        568 DC      0.0000
     21 H5''      -5.3066     4.1528  1845.9051 H        568 DC      0.0000
     22 H4'       -6.6694     1.8782  1846.3598 H        568 DC      0.0000
     23 H3'       -7.5662     3.4598  1848.4805 H        568 DC      0.0000
     24 H2'       -5.6231     3.4061  1849.7239 H        568 DC      0.0000
     25 H2''      -6.2613     1.8145  1850.2316 H        568 DC      0.0000
     26 H1'       -4.9016     0.6563  1848.7706 H        568 DC      0.0000
     27 H5        -1.5187     4.9073  1849.2628 H        568 DC      0.0000
     28 H6        -3.8004     4.2370  1848.7596 H        568 DC      0.0000
     29 H41        1.0519     2.3540  1850.0175 H        568 DC      0.0000
     30 H42        0.7418     4.0653  1849.8296 H        568 DC      0.0000
     31 P         -9.2860     1.2693  1849.2096 P.3      569 DA      0.0000
     32 OP1      -10.3003     0.4686  1848.4159 O.co2    569 DA      0.0000
     33 OP2       -9.7989     2.6107  1849.5552 O.co2    569 DA      0.0000
     34 O5'       -8.7059     0.4390  1850.5066 O.3      569 DA      0.0000
     35 C5'       -7.9689    -0.7869  1850.2114 C.3      569 DA      0.0000
     36 C4'       -7.4180    -1.3797  1851.4667 C.3      569 DA      0.0000
     37 O4'       -6.0339    -1.1101  1851.7088 O.3      569 DA      0.0000
     38 C3'       -8.0750    -0.9004  1852.7719 C.3      569 DA      0.0000
     39 O3'       -7.7866    -1.8487  1853.8018 O.3      569 DA      0.0000
     40 C2'       -7.2809     0.4036  1852.9865 C.3      569 DA      0.0000
     41 C1'       -5.8879    -0.2083  1852.8032 C.3      569 DA      0.0000
     42 N9        -4.9054     0.8583  1852.7089 N.ar     569 DA      0.0000
     43 C8        -5.0678     2.2110  1852.5931 C.ar     569 DA      0.0000
     44 N7        -3.9458     2.9081  1852.5745 N.ar     569 DA      0.0000
     45 C5        -2.9654     1.9319  1852.6820 C.ar     569 DA      0.0000
     46 C6        -1.5511     2.0070  1852.7165 C.ar     569 DA      0.0000
     47 N6        -0.8582     3.1283  1852.6313 N.pl3    569 DA      0.0000
     48 N1        -0.8889     0.8201  1852.8491 N.ar     569 DA      0.0000
     49 C2        -1.5676    -0.3667  1852.9293 C.ar     569 DA      0.0000
     50 N3        -2.8896    -0.5176  1852.8995 N.ar     569 DA      0.0000
     51 C4        -3.5306     0.6705  1852.7764 C.ar     569 DA      0.0000
     52 H5'       -8.6404    -1.5046  1849.7402 H        569 DA      0.0000
     53 H5''      -7.1490    -0.5594  1849.5301 H        569 DA      0.0000
     54 H4'       -7.5422    -2.4610  1851.4078 H        569 DA      0.0000
     55 H3'       -9.1442    -0.7222  1852.6583 H        569 DA      0.0000
     56 H2'       -7.5078     1.1605  1852.2357 H        569 DA      0.0000
     57 H2''      -7.4161     0.7909  1853.9964 H        569 DA      0.0000
     58 H1'       -5.6603    -0.7954  1853.6929 H        569 DA      0.0000
     59 H8        -6.0405     2.6749  1852.5221 H        569 DA      0.0000
     60 H2        -0.9745    -1.2641  1853.0258 H        569 DA      0.0000
     61 H61        0.1043     3.3761  1852.8113 H        569 DA      0.0000
     62 H62       -1.4136     3.9110  1852.3166 H        569 DA      0.0000
     63 P         -8.6208    -3.2070  1853.9423 P.3      570 DC      0.0000
     64 OP1       -9.3499    -3.5800  1852.6972 O.co2    570 DC      0.0000
     65 OP2       -9.5434    -2.8959  1855.0852 O.co2    570 DC      0.0000
     66 O5'       -7.5017    -4.2942  1854.2255 O.3      570 DC      0.0000
     67 C5'       -6.7298    -4.8874  1853.1378 C.3      570 DC      0.0000
     68 C4'       -5.4093    -5.2176  1853.8427 C.3      570 DC      0.0000
     69 O4'       -4.7825    -3.9952  1854.1547 O.3      570 DC      0.0000
     70 C3'       -5.5850    -5.9814  1855.1526 C.3      570 DC      0.0000
     71 O3'       -4.7741    -7.1762  1855.2205 O.3      570 DC      0.0000
     72 C2'       -5.2364    -4.9484  1856.2348 C.3      570 DC      0.0000
     73 C1'       -4.2353    -4.1023  1855.5586 C.3      570 DC      0.0000
     74 N1        -4.0624    -2.6956  1855.9115 N.am     570 DC      0.0000
     75 C2        -2.7471    -2.2357  1855.8846 C.2      570 DC      0.0000
     76 O2        -1.7923    -2.9740  1855.6777 O.2      570 DC      0.0000
     77 N3        -2.5415    -0.9152  1856.1377 N.2      570 DC      0.0000
     78 C4        -3.5595    -0.0519  1856.3711 C.2      570 DC      0.0000
     79 N4        -3.2320     1.2180  1856.6020 N.pl3    570 DC      0.0000
     80 C5        -4.8985    -0.5307  1856.3776 C.2      570 DC      0.0000
     81 C6        -5.0936    -1.8348  1856.1282 C.2      570 DC      0.0000
     82 H5'       -7.2110    -5.7866  1852.7529 H        570 DC      0.0000
     83 H5''      -6.5700    -4.1634  1852.3387 H        570 DC      0.0000
     84 H4'       -4.7720    -5.7916  1853.1700 H        570 DC      0.0000
     85 H3'       -6.6331    -6.2614  1855.2585 H        570 DC      0.0000
     86 H2'       -6.1132    -4.3678  1856.5218 H        570 DC      0.0000
     87 H2''      -4.7993    -5.4379  1857.1051 H        570 DC      0.0000
     88 H1'       -3.2685    -4.6057  1855.5454 H        570 DC      0.0000
     89 H5        -5.7284     0.1313  1856.5761 H        570 DC      0.0000
     90 H6        -6.1043    -2.2143  1856.0985 H        570 DC      0.0000
     91 H41       -2.2621     1.4994  1856.5909 H        570 DC      0.0000
     92 H42       -3.9536     1.8998  1856.7881 H        570 DC      0.0000
     93 P          5.7695     6.2257  1858.1800 P.3      570 DG      0.0000
     94 OP1        6.7287     7.3593  1858.3588 O.co2    570 DG      0.0000
     95 OP2        4.7329     6.4870  1857.0952 O.co2    570 DG      0.0000
     96 O5'        6.6109     4.8264  1857.9728 O.3      570 DG      0.0000
     97 C5'        6.6595     3.8533  1859.0686 C.3      570 DG      0.0000
     98 C4'        6.5893     2.4661  1858.4343 C.3      570 DG      0.0000
     99 O4'        5.2716     1.9986  1858.3385 O.3      570 DG      0.0000
    100 C3'        7.1770     2.3841  1857.0279 C.3      570 DG      0.0000
    101 O3'        7.9202     1.1723  1856.7610 O.3      570 DG      0.0000
    102 C2'        5.9347     2.4941  1856.1257 C.3      570 DG      0.0000
    103 C1'        4.9160     1.7241  1856.9495 C.3      570 DG      0.0000
    104 N9         3.5476     2.1954  1856.6762 N.ar     570 DG      0.0000
    105 C8         3.1155     3.4909  1856.5195 C.ar     570 DG      0.0000
    106 N7         1.8319     3.5998  1856.3011 N.ar     570 DG      0.0000
    107 C5         1.3810     2.2853  1856.3259 C.ar     570 DG      0.0000
    108 C6         0.0800     1.7371  1856.1694 C.2      570 DG      0.0000
    109 O6        -0.9694     2.3663  1855.9726 O.2      570 DG      0.0000
    110 N1         0.0295     0.3677  1856.2564 N.am     570 DG      0.0000
    111 C2         1.1297    -0.3928  1856.4770 C.2      570 DG      0.0000
    112 N2         0.9268    -1.7059  1856.5404 N.pl3    570 DG      0.0000
    113 N3         2.3751     0.0721  1856.6347 N.2      570 DG      0.0000
    114 C4         2.4239     1.4158  1856.5515 C.ar     570 DG      0.0000
    115 H5'        7.5895     3.9636  1859.6263 H        570 DG      0.0000
    116 H5''       5.8085     4.0006  1859.7335 H        570 DG      0.0000
    117 H4'        7.1445     1.7773  1859.0710 H        570 DG      0.0000
    118 H3'        7.8222     3.2460  1856.8575 H        570 DG      0.0000
    119 H2'        5.6333     3.5318  1855.9830 H        570 DG      0.0000
    120 H2''       6.1073     2.0052  1855.1669 H        570 DG      0.0000
    121 H1'        4.9949     0.6565  1856.7442 H        570 DG      0.0000
    122 H8         3.7776     4.3425  1856.5723 H        570 DG      0.0000
    123 H1        -0.8638    -0.0917  1856.1516 H        570 DG      0.0000
    124 H21       -0.0047    -2.0791  1856.4253 H        570 DG      0.0000
    125 H22        1.7041    -2.3298  1856.7035 H        570 DG      0.0000
    126 P          7.9124     0.6754  1855.2375 P.3      569 DT      0.0000
    127 OP1        9.1403    -0.1020  1854.8466 O.co2    569 DT      0.0000
    128 OP2        7.8579     1.9821  1854.5369 O.co2    569 DT      0.0000
    129 O5'        6.6110    -0.2500  1855.1066 O.3      569 DT      0.0000
    130 C5'        6.7878    -1.6780  1855.3742 C.3      569 DT      0.0000
    131 C4'        5.7234    -2.4419  1854.6172 C.3      569 DT      0.0000
    132 O4'        4.4764    -1.7706  1854.5899 O.3      569 DT      0.0000
    133 C3'        6.0899    -2.6920  1853.1625 C.3      569 DT      0.0000
    134 O3'        5.6828    -3.9861  1852.6673 O.3      569 DT      0.0000
    135 C2'        5.3858    -1.5652  1852.4396 C.3      569 DT      0.0000
    136 C1'        4.0805    -1.5492  1853.2177 C.3      569 DT      0.0000
    137 N1         3.5135    -0.1998  1853.0664 N.am     569 DT      0.0000
    138 C2         2.1302    -0.0989  1853.1732 C.2      569 DT      0.0000
    139 O2         1.4467    -1.0994  1853.3629 O.2      569 DT      0.0000
    140 N3         1.5843     1.1485  1853.0530 N.am     569 DT      0.0000
    141 C4         2.3517     2.2533  1852.8354 C.2      569 DT      0.0000
    142 O4         1.7519     3.3747  1852.7379 O.2      569 DT      0.0000
    143 C5         3.7654     2.1184  1852.7290 C.2      569 DT      0.0000
    144 C7         4.6219     3.3307  1852.5001 C.3      569 DT      0.0000
    145 C6         4.2932     0.8977  1852.8508 C.2      569 DT      0.0000
    146 H5'        7.7758    -1.9952  1855.0405 H        569 DT      0.0000
    147 H5''       6.6840    -1.8662  1856.4428 H        569 DT      0.0000
    148 H4'        5.5822    -3.4063  1855.1051 H        569 DT      0.0000
    149 H3'        7.1672    -2.5816  1853.0385 H        569 DT      0.0000
    150 H2'        5.9257    -0.6227  1852.5312 H        569 DT      0.0000
    151 H2''       5.2145    -1.8181  1851.3932 H        569 DT      0.0000
    152 H1'        3.3920    -2.3180  1852.8671 H        569 DT      0.0000
    153 H3         0.5827     1.2544  1853.1277 H        569 DT      0.0000
    154 H6         5.3638     0.7770  1852.7767 H        569 DT      0.0000
    155 H71        3.9891     4.2155  1852.4314 H        569 DT      0.0000
    156 H72        5.3179     3.4457  1853.3310 H        569 DT      0.0000
    157 H73        5.1808     3.2107  1851.5720 H        569 DT      0.0000
    158 P          6.9921    -4.6452  1851.8890 P.3      568 DG      0.0000
    159 OP1        7.8126    -5.5396  1852.7602 O.co2    568 DG      0.0000
    160 OP2        7.6630    -3.3848  1851.4834 O.co2    568 DG      0.0000
    161 O5'        6.2557    -5.5639  1850.8081 O.3      568 DG      0.0000
    162 C5'        5.7041    -6.8365  1851.2316 C.3      568 DG      0.0000
    163 C4'        4.2483    -6.7982  1850.7839 C.3      568 DG      0.0000
    164 O4'        3.7015    -5.5231  1851.0546 O.3      568 DG      0.0000
    165 C3'        4.0387    -7.0804  1849.2961 C.3      568 DG      0.0000
    166 O3'        3.1474    -8.1613  1849.0876 O.3      568 DG      0.0000
    167 C2'        3.5962    -5.7474  1848.7194 C.3      568 DG      0.0000
    168 C1'        2.9543    -5.0673  1849.9056 C.3      568 DG      0.0000
    169 N9         3.0384    -3.6095  1849.7820 N.ar     568 DG      0.0000
    170 C8         4.1522    -2.8346  1849.6231 C.ar     568 DG      0.0000
    171 N7         3.8957    -1.5516  1849.5451 N.ar     568 DG      0.0000
    172 C5         2.5128    -1.4744  1849.6826 C.ar     568 DG      0.0000
    173 C6         1.6223    -0.3685  1849.6921 C.2      568 DG      0.0000
    174 O6         1.9147     0.8188  1849.5930 O.2      568 DG      0.0000
    175 N1         0.3056    -0.7004  1849.8410 N.am     568 DG      0.0000
    176 C2        -0.1084    -2.0037  1849.9739 C.2      568 DG      0.0000
    177 N2        -1.4221    -2.1864  1850.1096 N.pl3    568 DG      0.0000
    178 N3         0.6748    -3.0871  1849.9782 N.2      568 DG      0.0000
    179 C4         1.9765    -2.7426  1849.8275 C.ar     568 DG      0.0000
    180 H5'        6.2313    -7.6617  1850.7529 H        568 DG      0.0000
    181 H5''       5.7625    -6.9305  1852.3159 H        568 DG      0.0000
    182 H4'        3.6922    -7.5401  1851.3569 H        568 DG      0.0000
    183 H3'        5.0019    -7.3409  1848.8576 H        568 DG      0.0000
    184 H2'        4.4489    -5.1756  1848.3531 H        568 DG      0.0000
    185 H2''       2.8665    -5.8981  1847.9239 H        568 DG      0.0000
    186 H1'        1.9122    -5.3747  1849.9926 H        568 DG      0.0000
    187 H8         5.1512    -3.2413  1849.5670 H        568 DG      0.0000
    188 H1        -0.3856     0.0359  1849.8539 H        568 DG      0.0000
    189 H21       -2.0452    -1.3915  1850.1106 H        568 DG      0.0000
    190 H22       -1.7943    -3.1198  1850.2114 H        568 DG      0.0000
    191 P         -3.7646    -9.2849  1860.2216 P.3      571 DG      0.0000
    192 OP1       -4.9089   -10.2294  1860.2200 O.co2    571 DG      0.0000
    193 OP2       -4.0755    -8.2139  1861.2773 O.co2    571 DG      0.0000
    194 O5'       -2.3139    -9.9136  1860.4000 O.3      571 DG      0.0000
    195 C5'       -1.3043   -10.1665  1859.3999 C.3      571 DG      0.0000
    196 C4'        0.0067    -9.5953  1859.8988 C.3      571 DG      0.0000
    197 O4'        0.1980    -8.2614  1859.4796 O.3      571 DG      0.0000
    198 C3'        0.2691    -9.6217  1861.3910 C.3      571 DG      0.0000
    199 O3'        1.5288   -10.2754  1861.7030 O.3      571 DG      0.0000
    200 C2'        0.2279    -8.1653  1861.8128 C.3      571 DG      0.0000
    201 C1'        0.6144    -7.4218  1860.5572 C.3      571 DG      0.0000
    202 N9        -0.0436    -6.1029  1860.5281 N.ar     571 DG      0.0000
    203 C8        -1.3603    -5.7800  1860.7570 C.ar     571 DG      0.0000
    204 N7        -1.6211    -4.4953  1860.6673 N.ar     571 DG      0.0000
    205 C5        -0.3893    -3.9287  1860.3503 C.ar     571 DG      0.0000
    206 C6         0.0017    -2.5858  1860.1244 C.2      571 DG      0.0000
    207 O6        -0.6995    -1.5738  1860.1457 O.2      571 DG      0.0000
    208 N1         1.3282    -2.4051  1859.8429 N.am     571 DG      0.0000
    209 C2         2.1765    -3.3811  1859.7822 C.2      571 DG      0.0000
    210 N2         3.3385    -2.9442  1859.4854 N.pl3    571 DG      0.0000
    211 N3         1.8891    -4.7337  1859.9910 N.2      571 DG      0.0000
    212 C4         0.5873    -4.9030  1860.2635 C.ar     571 DG      0.0000
    213 H5'       -1.2025   -11.2401  1859.2412 H        571 DG      0.0000
    214 H5''      -1.5840    -9.6818  1858.4646 H        571 DG      0.0000
    215 H4'        0.7981   -10.1832  1859.4340 H        571 DG      0.0000
    216 H3'       -0.5412   -10.1578  1861.8849 H        571 DG      0.0000
    217 H2'       -0.7727    -7.8830  1862.1398 H        571 DG      0.0000
    218 H2''       0.9536    -7.9779  1862.6043 H        571 DG      0.0000
    219 H1'        1.6963    -7.2929  1860.5253 H        571 DG      0.0000
    220 H8        -2.1140    -6.5176  1860.9901 H        571 DG      0.0000
    221 H1         1.6611    -1.4665  1859.6745 H        571 DG      0.0000
    222 H21        3.4846    -1.9554  1859.3411 H        571 DG      0.0000
    223 H22        4.1119    -3.5874  1859.3950 H        571 DG      0.0000
    224 P          2.1970   -10.2016  1863.1315 P.3      572 DT      0.0000
    225 OP1        2.8219   -11.4737  1863.6432 O.co2    572 DT      0.0000
    226 OP2        0.9846    -9.9644  1864.0502 O.co2    572 DT      0.0000
    227 O5'        3.1093    -8.9488  1863.1601 O.3      572 DT      0.0000
    228 C5'        4.5548    -9.0151  1863.0161 C.3      572 DT      0.0000
    229 C4'        5.0107    -7.5722  1863.0736 C.3      572 DT      0.0000
    230 O4'        3.9615    -6.6702  1862.7984 O.3      572 DT      0.0000
    231 C3'        5.5844    -7.1020  1864.3863 C.3      572 DT      0.0000
    232 O3'        6.9713    -6.7845  1864.1981 O.3      572 DT      0.0000
    233 C2'        4.7735    -5.8671  1864.7786 C.3      572 DT      0.0000
    234 C1'        4.3028    -5.3998  1863.4258 C.3      572 DT      0.0000
    235 N1         3.0714    -4.6157  1863.5224 N.am     572 DT      0.0000
    236 C2         3.1672    -3.2649  1863.3245 C.2      572 DT      0.0000
    237 O2         4.2359    -2.7070  1863.0863 O.2      572 DT      0.0000
    238 N3         2.0093    -2.5393  1863.4056 N.am     572 DT      0.0000
    239 C4         0.8062    -3.1011  1863.6615 C.2      572 DT      0.0000
    240 O4        -0.1688    -2.3061  1863.7068 O.2      572 DT      0.0000
    241 C5         0.7250    -4.5167  1863.8612 C.2      572 DT      0.0000
    242 C7        -0.5857    -5.1773  1864.1411 C.3      572 DT      0.0000
    243 C6         1.8626    -5.2186  1863.7797 C.2      572 DT      0.0000
    244 H5'        4.9964    -9.5908  1863.8295 H        572 DT      0.0000
    245 H5''       4.8185    -9.4563  1862.0549 H        572 DT      0.0000
    246 H4'        5.7754    -7.4350  1862.3091 H        572 DT      0.0000
    247 H3'        5.4761    -7.8786  1865.1434 H        572 DT      0.0000
    248 H2'        3.9367    -6.1259  1865.4274 H        572 DT      0.0000
    249 H2''       5.4108    -5.1176  1865.2478 H        572 DT      0.0000
    250 H1'        5.0841    -4.8704  1862.8805 H        572 DT      0.0000
    251 H3         2.0556    -1.5398  1863.2681 H        572 DT      0.0000
    252 H6         1.8297    -6.2889  1863.9201 H        572 DT      0.0000
    253 H71       -0.9489    -5.6632  1863.2355 H        572 DT      0.0000
    254 H72       -1.3077    -4.4282  1864.4658 H        572 DT      0.0000
    255 H73       -0.4567    -5.9222  1864.9264 H        572 DT      0.0000
    256 P          7.8941    -7.1796  1865.4781 P.3      573 DG      0.0000
    257 OP1        9.1593    -7.6365  1864.7630 O.co2    573 DG      0.0000
    258 OP2        7.2297    -8.2279  1866.2316 O.co2    573 DG      0.0000
    259 O5'        7.9835    -5.6681  1866.0876 O.3      573 DG      0.0000
    260 C5'        8.2856    -4.7180  1864.9970 C.3      573 DG      0.0000
    261 C4'        8.0326    -3.3336  1865.5170 C.3      573 DG      0.0000
    262 O4'        6.7387    -2.8231  1865.3364 O.3      573 DG      0.0000
    263 C3'        8.3570    -3.1992  1867.0251 C.3      573 DG      0.0000
    264 O3'        9.2869    -2.1004  1867.1839 O.3      573 DG      0.0000
    265 C2'        7.0012    -3.0334  1867.6776 C.3      573 DG      0.0000
    266 C1'        6.2246    -2.2914  1866.5961 C.3      573 DG      0.0000
    267 N9         4.7773    -2.4618  1866.7656 N.ar     573 DG      0.0000
    268 C8         4.0823    -3.5907  1867.1018 C.ar     573 DG      0.0000
    269 N7         2.7804    -3.4276  1867.1876 N.ar     573 DG      0.0000
    270 C5         2.6119    -2.0848  1866.8575 C.ar     573 DG      0.0000
    271 C6         1.4341    -1.2896  1866.7632 C.2      573 DG      0.0000
    272 O6         0.2589    -1.6353  1866.9555 O.2      573 DG      0.0000
    273 N1         1.6614     0.0257  1866.4282 N.am     573 DG      0.0000
    274 C2         2.9156     0.5059  1866.2044 C.2      573 DG      0.0000
    275 N2         2.9469     1.8089  1865.8956 N.pl3    573 DG      0.0000
    276 N3         4.0443    -0.1962  1866.2754 N.2      573 DG      0.0000
    277 C4         3.8245    -1.4814  1866.6020 C.ar     573 DG      0.0000
    278 H5'        9.3286    -4.8170  1864.6965 H        573 DG      0.0000
    279 H5''       7.6358    -4.9162  1864.1446 H        573 DG      0.0000
    280 H4'        8.7126    -2.6670  1864.9865 H        573 DG      0.0000
    281 H3'        8.8200    -4.1201  1867.3798 H        573 DG      0.0000
    282 H2'        6.5472    -3.9989  1867.9006 H        573 DG      0.0000
    283 H2''       7.0796    -2.4271  1868.5800 H        573 DG      0.0000
    284 H1'        6.4643    -1.2298  1866.6550 H        573 DG      0.0000
    285 H8         4.5642    -4.5402  1867.2824 H        573 DG      0.0000
    286 H1         0.8744     0.6534  1866.3458 H        573 DG      0.0000
    287 H21        2.0873     2.3368  1865.8453 H        573 DG      0.0000
    288 H22        3.8302     2.2635  1865.7129 H        573 DG      0.0000
    289 P          9.9175    -1.7564  1868.5723 P.3      574 DA      0.0000
    290 OP1       11.1892    -2.4561  1868.9277 O.co2    574 DA      0.0000
    291 OP2        8.7761    -2.3636  1869.4681 O.co2    574 DA      0.0000
    292 O5'        9.8078    -0.1941  1868.8214 O.3      574 DA      0.0000
    293 C5'        9.6749     0.7974  1867.7924 C.3      574 DA      0.0000
    294 C4'        8.5646     1.7210  1868.2667 C.3      574 DA      0.0000
    295 O4'        7.3138     1.0730  1868.1763 O.3      574 DA      0.0000
    296 C3'        8.6886     2.2497  1869.6958 C.3      574 DA      0.0000
    297 O3'        8.4540     3.6721  1869.7481 O.3      574 DA      0.0000
    298 C2'        7.6152     1.4381  1870.4312 C.3      574 DA      0.0000
    299 C1'        6.5416     1.4239  1869.3536 C.3      574 DA      0.0000
    300 N9         5.4879     0.4301  1869.5820 N.ar     574 DA      0.0000
    301 C8         5.5818    -0.9156  1869.7978 C.ar     574 DA      0.0000
    302 N7         4.4216    -1.5110  1869.9628 N.ar     574 DA      0.0000
    303 C5         3.4986    -0.4854  1869.8226 C.ar     574 DA      0.0000
    304 C6         2.0874    -0.4836  1869.8705 C.ar     574 DA      0.0000
    305 N6         1.3381    -1.5666  1870.0903 N.pl3    574 DA      0.0000
    306 N1         1.4997     0.7351  1869.6807 N.ar     574 DA      0.0000
    307 C2         2.2407     1.8461  1869.4630 C.ar     574 DA      0.0000
    308 N3         3.5699     1.9199  1869.4047 N.ar     574 DA      0.0000
    309 C4         4.1314     0.7116  1869.5916 C.ar     574 DA      0.0000
    310 H5'        9.4045     0.3306  1866.8452 H        574 DA      0.0000
    311 H5''      10.6059     1.3539  1867.6846 H        574 DA      0.0000
    312 H4'        8.5408     2.5807  1867.5969 H        574 DA      0.0000
    313 H3'        9.6750     2.0174  1870.0972 H        574 DA      0.0000
    314 H2'        7.9600     0.4337  1870.6767 H        574 DA      0.0000
    315 H2''       7.2694     1.9623  1871.3221 H        574 DA      0.0000
    316 H1'        6.1070     2.4169  1869.2391 H        574 DA      0.0000
    317 H8         6.5240    -1.4424  1869.8299 H        574 DA      0.0000
    318 H2         1.6983     2.7693  1869.3216 H        574 DA      0.0000
    319 H61        1.6564    -2.5202  1869.9929 H        574 DA      0.0000
    320 H62        0.3447    -1.5048  1869.9188 H        574 DA      0.0000
    321 P          9.1390     4.6345  1870.8895 P.3      575 DA      0.0000
    322 OP1       10.0239     5.6579  1870.2225 O.co2    575 DA      0.0000
    323 OP2        9.8412     3.6354  1871.7204 O.co2    575 DA      0.0000
    324 O5'        7.8936     5.4785  1871.4203 O.3      575 DA      0.0000
    325 C5'        7.1229     6.3513  1870.5960 C.3      575 DA      0.0000
    326 C4'        5.6970     6.3570  1871.1183 C.3      575 DA      0.0000
    327 O4'        5.1615     5.0641  1871.1465 O.3      575 DA      0.0000
    328 C3'        5.4547     6.9725  1872.4856 C.3      575 DA      0.0000
    329 O3'        4.6163     8.1251  1872.4078 O.3      575 DA      0.0000
    330 C2'        4.8915     5.8113  1873.3144 C.3      575 DA      0.0000
    331 C1'        4.3047     4.8859  1872.3206 C.3      575 DA      0.0000
    332 N9         4.2547     3.4372  1872.5886 N.ar     575 DA      0.0000
    333 C8         5.2749     2.5243  1872.7038 C.ar     575 DA      0.0000
    334 N7         4.8718     1.2873  1872.8731 N.ar     575 DA      0.0000
    335 C5         3.4844     1.3827  1872.8361 C.ar     575 DA      0.0000
    336 C6         2.4632     0.3976  1872.9566 C.ar     575 DA      0.0000
    337 N6         2.6636    -0.9002  1873.1482 N.pl3    575 DA      0.0000
    338 N1         1.1758     0.8632  1872.8584 N.ar     575 DA      0.0000
    339 C2         0.9300     2.1922  1872.6693 C.ar     575 DA      0.0000
    340 N3         1.8324     3.1608  1872.5614 N.ar     575 DA      0.0000
    341 C4         3.0918     2.6884  1872.6533 C.ar     575 DA      0.0000
    342 H5'        7.1375     5.9950  1869.5660 H        575 DA      0.0000
    343 H5''       7.5351     7.3594  1870.6420 H        575 DA      0.0000
    344 H4'        5.1026     6.9287  1870.4056 H        575 DA      0.0000
    345 H3'        6.4146     7.2684  1872.9088 H        575 DA      0.0000
    346 H2'        5.6863     5.3190  1873.8746 H        575 DA      0.0000
    347 H2''       4.1199     6.1731  1873.9939 H        575 DA      0.0000
    348 H1'        3.3001     5.2298  1872.0745 H        575 DA      0.0000
    349 H8         6.3179     2.8009  1872.6590 H        575 DA      0.0000
    350 H2        -0.1066     2.4872  1872.6001 H        575 DA      0.0000
    351 H61        3.5465    -1.2668  1873.4744 H        575 DA      0.0000
    352 H62        1.9076    -1.5434  1872.9614 H        575 DA      0.0000
    353 P          4.7208     9.4362  1873.3640 P.3      576 DT      0.0000
    354 OP1        4.5532    10.7248  1872.5667 O.co2    576 DT      0.0000
    355 OP2        5.9123     9.3772  1874.1846 O.co2    576 DT      0.0000
    356 O5'        3.2933     9.3649  1874.1777 O.3      576 DT      0.0000
    357 C5'        2.2150     8.9541  1873.2326 C.3      576 DT      0.0000
    358 C4'        1.3815     7.9754  1874.0204 C.3      576 DT      0.0000
    359 O4'        2.0057     6.7258  1874.2123 O.3      576 DT      0.0000
    360 C3'        1.0644     8.4892  1875.4369 C.3      576 DT      0.0000
    361 O3'       -0.2290     9.0647  1875.4386 O.3      576 DT      0.0000
    362 C2'        1.2230     7.2643  1876.3342 C.3      576 DT      0.0000
    363 C1'        1.2589     6.1470  1875.3696 C.3      576 DT      0.0000
    364 N1         1.9206     4.8973  1875.7093 N.am     576 DT      0.0000
    365 C2         1.1105     3.7745  1875.8473 C.2      576 DT      0.0000
    366 O2        -0.1054     3.8867  1875.7592 O.2      576 DT      0.0000
    367 N3         1.7076     2.5768  1876.1013 N.am     576 DT      0.0000
    368 C4         3.0608     2.4380  1876.2214 C.2      576 DT      0.0000
    369 O4         3.5413     1.2877  1876.4766 O.2      576 DT      0.0000
    370 C5         3.8767     3.6044  1876.0498 C.2      576 DT      0.0000
    371 C7         5.3743     3.5022  1876.1373 C.3      576 DT      0.0000
    372 C6         3.2828     4.7829  1875.7941 C.2      576 DT      0.0000
    373 H5'        1.6177     9.8145  1872.9310 H        576 DT      0.0000
    374 H5''       2.6447     8.4664  1872.3576 H        576 DT      0.0000
    375 H4'        0.4420     7.8159  1873.4912 H        576 DT      0.0000
    376 H3'        1.7975     9.2441  1875.7213 H        576 DT      0.0000
    377 H2'        2.1484     7.3163  1876.9076 H        576 DT      0.0000
    378 H2''       0.3661     7.1657  1877.0006 H        576 DT      0.0000
    379 H1'        0.2396     5.9270  1875.0522 H        576 DT      0.0000
    380 H3         1.1257     1.7579  1876.2050 H        576 DT      0.0000
    381 H6         3.8950     5.6612  1875.6519 H        576 DT      0.0000
    382 H71        5.6568     2.4712  1876.3504 H        576 DT      0.0000
    383 H72        5.8152     3.8110  1875.1896 H        576 DT      0.0000
    384 H73        5.7367     4.1505  1876.9351 H        576 DT      0.0000
    385 P         -0.9253     9.9015  1876.5452 P.3      577 DT      0.0000
    386 OP1       -2.0478    10.7789  1875.9332 O.co2    577 DT      0.0000
    387 OP2        0.1378    10.7262  1877.1752 O.co2    577 DT      0.0000
    388 O5'       -1.7165     8.8211  1877.4276 O.3      577 DT      0.0000
    389 C5'       -2.8437     8.2435  1876.7158 C.3      577 DT      0.0000
    390 C4'       -3.2367     6.9761  1877.3919 C.3      577 DT      0.0000
    391 O4'       -2.2264     5.9754  1877.3686 O.3      577 DT      0.0000
    392 C3'       -3.6590     7.1443  1878.8586 C.3      577 DT      0.0000
    393 O3'       -4.8221     6.3828  1879.1226 O.3      577 DT      0.0000
    394 C2'       -2.4483     6.5232  1879.5949 C.3      577 DT      0.0000
    395 C1'       -2.2615     5.3214  1878.6914 C.3      577 DT      0.0000
    396 N1        -1.0198     4.6319  1878.9890 N.am     577 DT      0.0000
    397 C2        -1.0292     3.2475  1879.0439 C.2      577 DT      0.0000
    398 O2        -2.0903     2.6507  1878.8554 O.2      577 DT      0.0000
    399 N3         0.1461     2.6032  1879.3098 N.am     577 DT      0.0000
    400 C4         1.3114     3.2754  1879.5168 C.2      577 DT      0.0000
    401 O4         2.3634     2.6108  1879.7401 O.2      577 DT      0.0000
    402 C5         1.3102     4.6993  1879.4517 C.2      577 DT      0.0000
    403 C7         2.5550     5.5112  1879.6616 C.3      577 DT      0.0000
    404 C6         0.1471     5.3160  1879.1906 C.2      577 DT      0.0000
    405 H5'       -3.6814     8.9408  1876.7282 H        577 DT      0.0000
    406 H5''      -2.5572     8.0345  1875.6851 H        577 DT      0.0000
    407 H4'       -4.0966     6.5776  1876.8535 H        577 DT      0.0000
    408 H3'       -3.7958     8.1934  1879.1210 H        577 DT      0.0000
    409 H2'       -1.5798     7.1818  1879.5937 H        577 DT      0.0000
    410 H2''      -2.7137     6.2198  1880.6076 H        577 DT      0.0000
    411 H1'       -3.1109     4.6425  1878.7670 H        577 DT      0.0000
    412 H3         0.1502     1.5942  1879.3542 H        577 DT      0.0000
    413 H6         0.1320     6.3946  1879.1375 H        577 DT      0.0000
    414 H71        3.3946     4.8452  1879.8606 H        577 DT      0.0000
    415 H72        2.7611     6.0978  1878.7664 H        577 DT      0.0000
    416 H73        2.4134     6.1807  1880.5100 H        577 DT      0.0000
    417 P         -6.2430     6.6554  1879.7306 P.3      578 DC      0.0000
    418 OP1       -7.3191     6.6143  1878.6626 O.co2    578 DC      0.0000
    419 OP2       -6.1153     7.9270  1880.4655 O.co2    578 DC      0.0000
    420 O5'       -6.3589     5.2538  1880.5566 O.3      578 DC      0.0000
    421 C5'       -6.0824     4.2273  1879.5343 C.3      578 DC      0.0000
    422 C4'       -6.0983     2.8964  1880.2308 C.3      578 DC      0.0000
    423 O4'       -4.8177     2.4043  1880.4777 O.3      578 DC      0.0000
    424 C3'       -6.9072     2.8514  1881.5223 C.3      578 DC      0.0000
    425 O3'       -7.9075     1.8446  1881.4426 O.3      578 DC      0.0000
    426 C2'       -5.8039     2.6950  1882.5711 C.3      578 DC      0.0000
    427 C1'       -4.7232     1.9671  1881.8746 C.3      578 DC      0.0000
    428 N1        -3.3448     2.3407  1882.2068 N.am     578 DC      0.0000
    429 C2        -2.4730     1.2845  1882.4626 C.2      578 DC      0.0000
    430 O2        -2.8656     0.1138  1882.4670 O.2      578 DC      0.0000
    431 N3        -1.1643     1.5967  1882.7364 N.2      578 DC      0.0000
    432 C4        -0.7228     2.8872  1882.7265 C.2      578 DC      0.0000
    433 N4         0.5610     3.0872  1883.0033 N.pl3    578 DC      0.0000
    434 C5        -1.6146     3.9464  1882.4485 C.2      578 DC      0.0000
    435 C6        -2.8972     3.6236  1882.1837 C.2      578 DC      0.0000
    436 H5'       -6.8498     4.2536  1878.7607 H        578 DC      0.0000
    437 H5''      -5.1024     4.4013  1879.0901 H        578 DC      0.0000
    438 H4'       -6.5722     2.1943  1879.5449 H        578 DC      0.0000
    439 H3'       -7.3925     3.8168  1881.6656 H        578 DC      0.0000
    440 H2'       -5.4542     3.6705  1882.9090 H        578 DC      0.0000
    441 H2''      -6.1676     2.1112  1883.4166 H        578 DC      0.0000
    442 H1'       -4.8647     0.8894  1881.9556 H        578 DC      0.0000
    443 H5        -1.2828     4.9742  1882.4479 H        578 DC      0.0000
    444 H6        -3.5939     4.4135  1881.9446 H        578 DC      0.0000
    445 H41        1.1630     2.3011  1883.2025 H        578 DC      0.0000
    446 H42        0.9349     4.0253  1883.0146 H        578 DC      0.0000
    447 P         -9.2148     1.7109  1882.3947 P.3      579 DA      0.0000
    448 OP1      -10.2663     0.9595  1881.6009 O.co2    579 DA      0.0000
    449 OP2       -9.6632     3.0752  1882.7402 O.co2    579 DA      0.0000
    450 O5'       -8.6751     0.8539  1883.6917 O.3      579 DA      0.0000
    451 C5'       -7.9974    -0.4058  1883.3964 C.3      579 DA      0.0000
    452 C4'       -7.4754    -1.0242  1884.6517 C.3      579 DA      0.0000
    453 O4'       -6.0800    -0.8209  1884.8939 O.3      579 DA      0.0000
    454 C3'       -8.1087    -0.5141  1885.9570 C.3      579 DA      0.0000
    455 O3'       -7.8659    -1.4751  1886.9869 O.3      579 DA      0.0000
    456 C2'       -7.2533     0.7505  1886.1716 C.3      579 DA      0.0000
    457 C1'       -5.8911     0.0729  1885.9883 C.3      579 DA      0.0000
    458 N9        -4.8589     1.0913  1885.8940 N.ar     579 DA      0.0000
    459 C8        -4.9565     2.4503  1885.7781 C.ar     579 DA      0.0000
    460 N7        -3.8026     3.0930  1885.7595 N.ar     579 DA      0.0000
    461 C5        -2.8698     2.0711  1885.8671 C.ar     579 DA      0.0000
    462 C6        -1.4536     2.0787  1885.9016 C.ar     579 DA      0.0000
    463 N6        -0.7080     3.1657  1885.8163 N.pl3    579 DA      0.0000
    464 N1        -0.8488     0.8616  1886.0342 N.ar     579 DA      0.0000
    465 C2        -1.5833    -0.2915  1886.1143 C.ar     579 DA      0.0000
    466 N3        -2.9110    -0.3791  1886.0845 N.ar     579 DA      0.0000
    467 C4        -3.4946     0.8382  1885.9615 C.ar     579 DA      0.0000
    468 H5'       -8.7024    -1.0907  1882.9253 H        579 DA      0.0000
    469 H5''      -7.1676    -0.2177  1882.7151 H        579 DA      0.0000
    470 H4'       -7.6510    -2.0984  1884.5928 H        579 DA      0.0000
    471 H3'       -9.1683    -0.2851  1885.8433 H        579 DA      0.0000
    472 H2'       -7.4439     1.5173  1885.4208 H        579 DA      0.0000
    473 H2''      -7.3700     1.1438  1887.1814 H        579 DA      0.0000
    474 H1'       -5.6918    -0.5244  1886.8779 H        579 DA      0.0000
    475 H8        -5.9060     2.9601  1885.7071 H        579 DA      0.0000
    476 H2        -1.0337    -1.2162  1886.2108 H        579 DA      0.0000
    477 H61        0.2652     3.3672  1885.9964 H        579 DA      0.0000
    478 H62       -1.2254     3.9739  1885.5016 H        579 DA      0.0000
    479 P         -8.7639    -2.7920  1887.1273 P.3      580 DC      0.0000
    480 OP1       -9.5101    -3.1299  1885.8822 O.co2    580 DC      0.0000
    481 OP2       -9.6706    -2.4372  1888.2702 O.co2    580 DC      0.0000
    482 O5'       -7.6981    -3.9314  1887.4105 O.3      580 DC      0.0000
    483 C5'       -6.9554    -4.5608  1886.3228 C.3      580 DC      0.0000
    484 C4'       -5.6521    -4.9536  1887.0277 C.3      580 DC      0.0000
    485 O4'       -4.9676    -3.7625  1887.3397 O.3      580 DC      0.0000
    486 C3'       -5.8640    -5.7081  1888.3377 C.3      580 DC      0.0000
    487 O3'       -5.1110    -6.9402  1888.4055 O.3      580 DC      0.0000
    488 C2'       -5.4665    -4.6929  1889.4199 C.3      580 DC      0.0000
    489 C1'       -4.4262    -3.8956  1888.7437 C.3      580 DC      0.0000
    490 N1        -4.1864    -2.4987  1889.0965 N.am     580 DC      0.0000
    491 C2        -2.8506    -2.1021  1889.0696 C.2      580 DC      0.0000
    492 O2        -1.9321    -2.8851  1888.8627 O.2      580 DC      0.0000
    493 N3        -2.5823    -0.7929  1889.3227 N.2      580 DC      0.0000
    494 C4        -3.5579     0.1179  1889.5561 C.2      580 DC      0.0000
    495 N4        -3.1702     1.3708  1889.7870 N.pl3    580 DC      0.0000
    496 C5        -4.9183    -0.2964  1889.5627 C.2      580 DC      0.0000
    497 C6        -5.1754    -1.5897  1889.3132 C.2      580 DC      0.0000
    498 H5'       -7.4788    -5.4360  1885.9379 H        580 DC      0.0000
    499 H5''      -6.7611    -3.8452  1885.5238 H        580 DC      0.0000
    500 H4'       -5.0429    -5.5573  1886.3551 H        580 DC      0.0000
    501 H3'       -6.9243    -5.9378  1888.4435 H        580 DC      0.0000
    502 H2'       -6.3146    -4.0712  1889.7069 H        580 DC      0.0000
    503 H2''      -5.0533    -5.2027  1890.2901 H        580 DC      0.0000
    504 H1'       -3.4846    -4.4445  1888.7304 H        580 DC      0.0000
    505 H5        -5.7157     0.4044  1889.7612 H        580 DC      0.0000
    506 H6        -6.2030    -1.9206  1889.2835 H        580 DC      0.0000
    507 H41       -2.1879     1.6056  1889.7760 H        580 DC      0.0000
    508 H42       -3.8584     2.0863  1889.9732 H        580 DC      0.0000
    509 P          6.0599     5.9434  1891.3651 P.3      580 DG      0.0000
    510 OP1        7.0721     7.0299  1891.5438 O.co2    580 DG      0.0000
    511 OP2        5.0370     6.2538  1890.2802 O.co2    580 DG      0.0000
    512 O5'        6.8336     4.5055  1891.1578 O.3      580 DG      0.0000
    513 C5'        6.8358     3.5312  1892.2536 C.3      580 DG      0.0000
    514 C4'        6.6995     2.1490  1891.6193 C.3      580 DG      0.0000
    515 O4'        5.3609     1.7448  1891.5235 O.3      580 DG      0.0000
    516 C3'        7.2826     2.0390  1890.2130 C.3      580 DG      0.0000
    517 O3'        7.9671     0.7931  1889.9460 O.3      580 DG      0.0000
    518 C2'        6.0469     2.2082  1889.3107 C.3      580 DG      0.0000
    519 C1'        4.9927     1.4876  1890.1345 C.3      580 DG      0.0000
    520 N9         3.6483     2.0237  1889.8612 N.ar     580 DG      0.0000
    521 C8         3.2785     3.3383  1889.7046 C.ar     580 DG      0.0000
    522 N7         2.0016     3.5083  1889.4861 N.ar     580 DG      0.0000
    523 C5         1.4885     2.2168  1889.5109 C.ar     580 DG      0.0000
    524 C6         0.1628     1.7313  1889.3545 C.2      580 DG      0.0000
    525 O6        -0.8554     2.4099  1889.1576 O.2      580 DG      0.0000
    526 N1         0.0470     0.3659  1889.4414 N.am     580 DG      0.0000
    527 C2         1.1097    -0.4463  1889.6621 C.2      580 DG      0.0000
    528 N2         0.8443    -1.7482  1889.7254 N.pl3    580 DG      0.0000
    529 N3         2.3758    -0.0413  1889.8198 N.2      580 DG      0.0000
    530 C4         2.4887     1.2985  1889.7365 C.ar     580 DG      0.0000
    531 H5'        7.7700     3.5969  1892.8114 H        580 DG      0.0000
    532 H5''       5.9928     3.7190  1892.9185 H        580 DG      0.0000
    533 H4'        7.2212     1.4345  1892.2560 H        580 DG      0.0000
    534 H3'        7.9682     2.8691  1890.0425 H        580 DG      0.0000
    535 H2'        5.7954     3.2591  1889.1680 H        580 DG      0.0000
    536 H2''       6.1960     1.7116  1888.3519 H        580 DG      0.0000
    537 H1'        5.0205     0.4174  1889.9293 H        580 DG      0.0000
    538 H8         3.9805     4.1574  1889.7573 H        580 DG      0.0000
    539 H1        -0.8672    -0.0503  1889.3366 H        580 DG      0.0000
    540 H21       -0.1039    -2.0765  1889.6103 H        580 DG      0.0000
    541 H22        1.5910    -2.4084  1889.8886 H        580 DG      0.0000
    542 P          7.9356     0.2971  1888.4225 P.3      579 DT      0.0000
    543 OP1        9.1251    -0.5379  1888.0316 O.co2    579 DT      0.0000
    544 OP2        7.9436     1.6049  1887.7220 O.co2    579 DT      0.0000
    545 O5'        6.5915    -0.5651  1888.2916 O.3      579 DT      0.0000
    546 C5'        6.7001    -1.9999  1888.5592 C.3      579 DT      0.0000
    547 C4'        5.6003    -2.7122  1887.8022 C.3      579 DT      0.0000
    548 O4'        4.3868    -1.9822  1887.7749 O.3      579 DT      0.0000
    549 C3'        5.9545    -2.9795  1886.3475 C.3      579 DT      0.0000
    550 O3'        5.4862    -4.2527  1885.8524 O.3      579 DT      0.0000
    551 C2'        5.3049    -1.8203  1885.6246 C.3      579 DT      0.0000
    552 C1'        4.0019    -1.7421  1886.4027 C.3      579 DT      0.0000
    553 N1         3.5000    -0.3673  1886.2514 N.am     579 DT      0.0000
    554 C2         2.1230    -0.2004  1886.3582 C.2      579 DT      0.0000
    555 O2         1.3926    -1.1672  1886.5479 O.2      579 DT      0.0000
    556 N3         1.6373     1.0716  1886.2380 N.am     579 DT      0.0000
    557 C4         2.4565     2.1386  1886.0205 C.2      579 DT      0.0000
    558 O4         1.9109     3.2873  1885.9229 O.2      579 DT      0.0000
    559 C5         3.8622     1.9364  1885.9141 C.2      579 DT      0.0000
    560 C7         4.7755     3.1064  1885.6851 C.3      579 DT      0.0000
    561 C6         4.3311     0.6919  1886.0358 C.2      579 DT      0.0000
    562 H5'        7.6718    -2.3639  1888.2255 H        579 DT      0.0000
    563 H5''       6.5874    -2.1830  1889.6279 H        579 DT      0.0000
    564 H4'        5.4133    -3.6688  1888.2901 H        579 DT      0.0000
    565 H3'        7.0358    -2.9206  1886.2235 H        579 DT      0.0000
    566 H2'        5.8892    -0.9047  1885.7162 H        579 DT      0.0000
    567 H2''       5.1218    -2.0648  1884.5782 H        579 DT      0.0000
    568 H1'        3.2775    -2.4772  1886.0521 H        579 DT      0.0000
    569 H3         0.6418     1.2252  1886.3127 H        579 DT      0.0000
    570 H6         5.3948     0.5202  1885.9617 H        579 DT      0.0000
    571 H71        4.1857     4.0204  1885.6164 H        579 DT      0.0000
    572 H72        5.4763     3.1881  1886.5160 H        579 DT      0.0000
    573 H73        5.3281     2.9599  1884.7570 H        579 DT      0.0000
    574 P          6.7625    -4.9735  1885.0740 P.3      578 DG      0.0000
    575 OP1        7.5394    -5.9060  1885.9452 O.co2    578 DG      0.0000
    576 OP2        7.4928    -3.7466  1884.6684 O.co2    578 DG      0.0000
    577 O5'        5.9831    -5.8561  1883.9932 O.3      578 DG      0.0000
    578 C5'        5.3714    -7.1009  1884.4167 C.3      578 DG      0.0000
    579 C4'        3.9192    -6.9931  1883.9689 C.3      578 DG      0.0000
    580 O4'        3.4338    -5.6934  1884.2396 O.3      578 DG      0.0000
    581 C3'        3.6963    -7.2650  1882.4812 C.3      578 DG      0.0000
    582 O3'        2.7544    -8.3021  1882.2727 O.3      578 DG      0.0000
    583 C2'        3.3179    -5.9124  1881.9045 C.3      578 DG      0.0000
    584 C1'        2.7092    -5.2025  1883.0906 C.3      578 DG      0.0000
    585 N9         2.8627    -3.7504  1882.9671 N.ar     578 DG      0.0000
    586 C8         4.0123    -3.0295  1882.8082 C.ar     578 DG      0.0000
    587 N7         3.8172    -1.7357  1882.7301 N.ar     578 DG      0.0000
    588 C5         2.4396    -1.5926  1882.8676 C.ar     578 DG      0.0000
    589 C6         1.6028    -0.4455  1882.8771 C.2      578 DG      0.0000
    590 O6         1.9516     0.7265  1882.7781 O.2      578 DG      0.0000
    591 N1         0.2719    -0.7141  1883.0261 N.am     578 DG      0.0000
    592 C2        -0.2038    -1.9962  1883.1590 C.2      578 DG      0.0000
    593 N2        -1.5248    -2.1161  1883.2946 N.pl3    578 DG      0.0000
    594 N3         0.5268    -3.1158  1883.1633 N.2      578 DG      0.0000
    595 C4         1.8434    -2.8338  1883.0126 C.ar     578 DG      0.0000
    596 H5'        5.8586    -7.9503  1883.9379 H        578 DG      0.0000
    597 H5''       5.4253    -7.1975  1885.5010 H        578 DG      0.0000
    598 H4'        3.3282    -7.7077  1884.5419 H        578 DG      0.0000
    599 H3'        4.6460    -7.5712  1882.0426 H        578 DG      0.0000
    600 H2'        4.1969    -5.3820  1881.5381 H        578 DG      0.0000
    601 H2''       2.5818    -6.0281  1881.1089 H        578 DG      0.0000
    602 H1'        1.6536    -5.4598  1883.1776 H        578 DG      0.0000
    603 H8         4.9906    -3.4834  1882.7521 H        578 DG      0.0000
    604 H1        -0.3835     0.0543  1883.0389 H        578 DG      0.0000
    605 H21       -2.1092    -1.2923  1883.2956 H        578 DG      0.0000
    606 H22       -1.9411    -3.0306  1883.3964 H        578 DG      0.0000
    607 P          1.4428    -8.4648  1881.4064 P.3      577 DA      0.0000
    608 OP1        0.3891    -9.2599  1882.1877 O.co2    577 DA      0.0000
    609 OP2        1.8615    -9.2047  1880.2137 O.co2    577 DA      0.0000
    610 O5'        0.8246    -6.9677  1881.2316 O.3      577 DA      0.0000
    611 C5'       -0.0111    -6.5861  1882.3880 C.3      577 DA      0.0000
    612 C4'       -1.4099    -6.3837  1881.8602 C.3      577 DA      0.0000
    613 O4'       -1.7099    -5.0292  1881.6380 O.3      577 DA      0.0000
    614 C3'       -1.6471    -7.0781  1880.5197 C.3      577 DA      0.0000
    615 O3'       -2.9122    -7.6905  1880.4445 O.3      577 DA      0.0000
    616 C2'       -1.3360    -5.9759  1879.5232 C.3      577 DA      0.0000
    617 C1'       -1.5466    -4.6754  1880.2470 C.3      577 DA      0.0000
    618 N9        -0.4310    -3.7406  1880.0215 N.ar     577 DA      0.0000
    619 C8         0.9063    -4.0169  1879.8351 C.ar     577 DA      0.0000
    620 N7         1.6561    -2.9567  1879.6392 N.ar     577 DA      0.0000
    621 C5         0.7507    -1.9066  1879.7261 C.ar     577 DA      0.0000
    622 C6         0.9280    -0.5072  1879.6205 C.ar     577 DA      0.0000
    623 N6         2.0964     0.0722  1879.4080 N.pl3    577 DA      0.0000
    624 N1        -0.1972     0.2497  1879.7442 N.ar     577 DA      0.0000
    625 C2        -1.4173    -0.3216  1879.9687 C.ar     577 DA      0.0000
    626 N3        -1.6511    -1.6272  1880.0846 N.ar     577 DA      0.0000
    627 C4        -0.5254    -2.3691  1879.9485 C.ar     577 DA      0.0000
    628 H5'       -0.0025    -7.3788  1883.1361 H        577 DA      0.0000
    629 H5''       0.3593    -5.6586  1882.8247 H        577 DA      0.0000
    630 H4'       -2.1171    -6.7817  1882.5879 H        577 DA      0.0000
    631 H3'       -0.8913    -7.8553  1880.4066 H        577 DA      0.0000
    632 H2'       -2.0063    -6.0428  1878.6663 H        577 DA      0.0000
    633 H2''      -0.3003    -6.0544  1879.1926 H        577 DA      0.0000
    634 H1'       -2.4686    -4.2175  1879.8888 H        577 DA      0.0000
    635 H8         1.3042    -5.0208  1879.8490 H        577 DA      0.0000
    636 H2        -2.2643     0.3421  1880.0600 H        577 DA      0.0000
    637 H61        2.2773     1.0145  1879.7234 H        577 DA      0.0000
    638 H62        2.8212    -0.4361  1878.9218 H        577 DA      0.0000
    639 P         -3.9521    -7.8008  1879.2599 P.3      576 DA      0.0000
    640 OP1       -5.3141    -8.3466  1879.7798 O.co2    576 DA      0.0000
    641 OP2       -3.3512    -8.8036  1878.3263 O.co2    576 DA      0.0000
    642 O5'       -4.2500    -6.3378  1878.7573 O.3      576 DA      0.0000
    643 C5'       -5.4307    -5.6455  1879.2131 C.3      576 DA      0.0000
    644 C4'       -5.4556    -4.3052  1878.5112 C.3      576 DA      0.0000
    645 O4'       -4.2022    -3.6954  1878.3904 O.3      576 DA      0.0000
    646 C3'       -6.0473    -4.3656  1877.1036 C.3      576 DA      0.0000
    647 O3'       -7.2848    -3.6296  1877.0722 O.3      576 DA      0.0000
    648 C2'       -4.9011    -3.8996  1876.2041 C.3      576 DA      0.0000
    649 C1'       -4.1031    -3.0034  1877.1018 C.3      576 DA      0.0000
    650 N9        -2.6802    -2.8817  1876.8023 N.ar     576 DA      0.0000
    651 C8        -1.7409    -3.8732  1876.6075 C.ar     576 DA      0.0000
    652 N7        -0.5249    -3.4187  1876.4021 N.ar     576 DA      0.0000
    653 C5        -0.6602    -2.0460  1876.4766 C.ar     576 DA      0.0000
    654 C6         0.2770    -0.9971  1876.3431 C.ar     576 DA      0.0000
    655 N6         1.5703    -1.1861  1876.0999 N.pl3    576 DA      0.0000
    656 N1        -0.2357     0.2666  1876.4920 N.ar     576 DA      0.0000
    657 C2        -1.5399     0.4887  1876.7445 C.ar     576 DA      0.0000
    658 N3        -2.4808    -0.4503  1876.8833 N.ar     576 DA      0.0000
    659 C4        -1.9727    -1.6942  1876.7361 C.ar     576 DA      0.0000
    660 H5'       -6.3223    -6.2182  1878.9580 H        576 DA      0.0000
    661 H5''      -5.3809    -5.4982  1880.2919 H        576 DA      0.0000
    662 H4'       -6.0860    -3.6401  1879.1013 H        576 DA      0.0000
    663 H3'       -6.2638    -5.4076  1876.8686 H        576 DA      0.0000
    664 H2'       -4.3028    -4.7450  1875.8642 H        576 DA      0.0000
    665 H2''      -5.2881    -3.3397  1875.3528 H        576 DA      0.0000
    666 H1'       -4.5646    -2.0177  1877.1630 H        576 DA      0.0000
    667 H8        -1.9825    -4.9257  1876.6225 H        576 DA      0.0000
    668 H2        -1.8535     1.5174  1876.8435 H        576 DA      0.0000
    669 H61        2.1789    -0.4355  1876.3940 H        576 DA      0.0000
    670 H62        1.9198    -2.0215  1875.6527 H        576 DA      0.0000
    671 P         -8.1001    -3.5334  1875.6872 P.3      575 DT      0.0000
    672 OP1       -9.5154    -3.0470  1875.7454 O.co2    575 DT      0.0000
    673 OP2       -7.9217    -4.9263  1875.1746 O.co2    575 DT      0.0000
    674 O5'       -7.2141    -2.3093  1874.9841 O.3      575 DT      0.0000
    675 C5'       -6.9168    -1.3006  1875.9964 C.3      575 DT      0.0000
    676 C4'       -6.6270    -0.0023  1875.3135 C.3      575 DT      0.0000
    677 O4'       -5.2640     0.2416  1875.1330 O.3      575 DT      0.0000
    678 C3'       -7.2889     0.1462  1873.9522 C.3      575 DT      0.0000
    679 O3'       -7.7344     1.4815  1873.6849 O.3      575 DT      0.0000
    680 C2'       -6.1449    -0.3511  1873.0589 C.3      575 DT      0.0000
    681 C1'       -4.9451     0.3140  1873.6989 C.3      575 DT      0.0000
    682 N1        -3.7148    -0.4665  1873.4689 N.am     575 DT      0.0000
    683 C2        -2.5273     0.2334  1873.3473 C.2      575 DT      0.0000
    684 O2        -2.5070     1.4647  1873.3841 O.2      575 DT      0.0000
    685 N3        -1.3737    -0.4835  1873.1799 N.am     575 DT      0.0000
    686 C4        -1.3722    -1.8427  1873.1314 C.2      575 DT      0.0000
    687 O4        -0.2611    -2.4232  1872.9458 O.2      575 DT      0.0000
    688 C5        -2.6015    -2.5440  1873.2798 C.2      575 DT      0.0000
    689 C7        -2.6383    -4.0528  1873.2277 C.3      575 DT      0.0000
    690 C6        -3.7185    -1.8296  1873.4527 C.2      575 DT      0.0000
    691 H5'       -7.7746    -1.1825  1876.6585 H        575 DT      0.0000
    692 H5''      -6.0474    -1.6103  1876.5764 H        575 DT      0.0000
    693 H4'       -7.0161     0.7920  1875.9505 H        575 DT      0.0000
    694 H3'       -8.1322    -0.5406  1873.8802 H        575 DT      0.0000
    695 H2'       -6.0603    -1.4373  1873.0894 H        575 DT      0.0000
    696 H2''      -6.2772    -0.0036  1872.0343 H        575 DT      0.0000
    697 H1'       -4.8333     1.3456  1873.3649 H        575 DT      0.0000
    698 H3        -0.4977     0.0112  1873.0897 H        575 DT      0.0000
    699 H6        -4.6556    -2.3502  1873.5841 H        575 DT      0.0000
    700 H71       -2.9093    -4.3757  1872.2225 H        575 DT      0.0000
    701 H72       -3.3765    -4.4228  1873.9392 H        575 DT      0.0000
    702 H73       -1.6559    -4.4493  1873.4842 H        575 DT      0.0000
    703 P         -8.3597     1.7336  1872.1950 P.3      574 DT      0.0000
    704 OP1       -9.8468     2.0608  1872.3430 O.co2    574 DT      0.0000
    705 OP2       -8.2001     0.3989  1871.5252 O.co2    574 DT      0.0000
    706 O5'       -7.5658     2.8942  1871.5429 O.3      574 DT      0.0000
    707 C5'       -6.9652     3.9492  1872.2943 C.3      574 DT      0.0000
    708 C4'       -5.7643     4.4324  1871.5464 C.3      574 DT      0.0000
    709 O4'       -4.6344     3.6043  1871.4894 O.3      574 DT      0.0000
    710 C3'       -5.9676     4.8724  1870.0803 C.3      574 DT      0.0000
    711 O3'       -5.0312     5.9492  1869.9765 O.3      574 DT      0.0000
    712 C2'       -5.4998     3.6264  1869.3165 C.3      574 DT      0.0000
    713 C1'       -4.2179     3.4028  1870.0923 C.3      574 DT      0.0000
    714 N1        -3.6313     2.0638  1869.9861 N.am     574 DT      0.0000
    715 C2        -2.2306     2.0199  1869.9855 C.2      574 DT      0.0000
    716 O2        -1.5617     3.0545  1870.0285 O.2      574 DT      0.0000
    717 N3        -1.6480     0.7864  1869.9320 N.am     574 DT      0.0000
    718 C4        -2.3697    -0.3687  1869.8723 C.2      574 DT      0.0000
    719 O4        -1.7354    -1.4646  1869.8099 O.2      574 DT      0.0000
    720 C5        -3.7894    -0.2953  1869.8805 C.2      574 DT      0.0000
    721 C7        -4.6037    -1.5707  1869.8191 C.3      574 DT      0.0000
    722 C6        -4.3550     0.9135  1869.9470 C.2      574 DT      0.0000
    723 H5'       -7.6766     4.7660  1872.4166 H        574 DT      0.0000
    724 H5''      -6.6627     3.5765  1873.2729 H        574 DT      0.0000
    725 H4'       -5.4380     5.3289  1872.0736 H        574 DT      0.0000
    726 H3'       -6.9927     5.1636  1869.8516 H        574 DT      0.0000
    727 H2'       -5.3181     3.8286  1868.2610 H        574 DT      0.0000
    728 H2''      -6.1936     2.7962  1869.4482 H        574 DT      0.0000
    729 H1'       -3.4794     4.1545  1869.8133 H        574 DT      0.0000
    730 H3        -0.6398     0.7270  1869.9369 H        574 DT      0.0000
    731 H6        -5.4327     0.9795  1869.9707 H        574 DT      0.0000
    732 H71       -3.9331    -2.4286  1869.7703 H        574 DT      0.0000
    733 H72       -5.2376    -1.5544  1868.9325 H        574 DT      0.0000
    734 H73       -5.2270    -1.6470  1870.7101 H        574 DT      0.0000
    735 P         -4.9347     6.9920  1868.8303 P.3      573 DC      0.0000
    736 OP1       -4.8547     8.3930  1869.4394 O.co2    573 DC      0.0000
    737 OP2       -6.2034     6.8555  1868.0485 O.co2    573 DC      0.0000
    738 O5'       -3.5619     6.5198  1868.0909 O.3      573 DC      0.0000
    739 C5'       -2.3289     6.8393  1868.8154 C.3      573 DC      0.0000
    740 C4'       -1.2893     7.1319  1867.7649 C.3      573 DC      0.0000
    741 O4'       -0.4525     6.0256  1867.5196 O.3      573 DC      0.0000
    742 C3'       -1.8403     7.5495  1866.4005 C.3      573 DC      0.0000
    743 O3'       -1.0280     8.4875  1865.6912 O.3      573 DC      0.0000
    744 C2'       -1.9678     6.1824  1865.7143 C.3      573 DC      0.0000
    745 C1'       -0.7586     5.4260  1866.2609 C.3      573 DC      0.0000
    746 N1        -1.1297     3.9962  1866.3787 N.am     573 DC      0.0000
    747 C2        -0.0875     3.0704  1866.3960 C.2      573 DC      0.0000
    748 O2         1.0943     3.4352  1866.3273 O.2      573 DC      0.0000
    749 N3        -0.4258     1.7482  1866.4992 N.2      573 DC      0.0000
    750 C4        -1.7188     1.3368  1866.5700 C.2      573 DC      0.0000
    751 N4        -1.9983     0.0356  1866.6719 N.pl3    573 DC      0.0000
    752 C5        -2.7635     2.3025  1866.5448 C.2      573 DC      0.0000
    753 C6        -2.4302     3.6012  1866.4512 C.2      573 DC      0.0000
    754 H5'       -2.4795     7.7116  1869.4514 H        573 DC      0.0000
    755 H5''      -2.0193     5.9863  1869.4193 H        573 DC      0.0000
    756 H4'       -0.6646     7.9454  1868.1337 H        573 DC      0.0000
    757 H3'       -2.8357     7.9729  1866.5346 H        573 DC      0.0000
    758 H2'       -1.9148     6.2793  1864.6300 H        573 DC      0.0000
    759 H2''      -2.8940     5.6898  1866.0103 H        573 DC      0.0000
    760 H1'        0.0867     5.5358  1865.5816 H        573 DC      0.0000
    761 H5        -3.7987     1.9994  1866.5996 H        573 DC      0.0000
    762 H6        -3.2110     4.3472  1866.4331 H        573 DC      0.0000
    763 H41       -1.2493    -0.6417  1866.6926 H        573 DC      0.0000
    764 H42       -2.9587    -0.2718  1866.7283 H        573 DC      0.0000
    765 P         -0.7971     8.5244  1864.0592 P.3      572 DA      0.0000
    766 OP1       -0.3830     9.9270  1863.6697 O.co2    572 DA      0.0000
    767 OP2       -2.0965     8.0757  1863.4891 O.co2    572 DA      0.0000
    768 O5'        0.4700     7.5676  1863.8937 O.3      572 DA      0.0000
    769 C5'        1.7823     8.0708  1864.3591 C.3      572 DA      0.0000
    770 C4'        2.7436     7.2870  1863.4818 C.3      572 DA      0.0000
    771 O4'        2.6098     5.8852  1863.7491 O.3      572 DA      0.0000
    772 C3'        2.4494     7.4248  1861.9774 C.3      572 DA      0.0000
    773 O3'        3.5530     7.0099  1861.1883 O.3      572 DA      0.0000
    774 C2'        1.3823     6.3307  1861.7899 C.3      572 DA      0.0000
    775 C1'        2.1833     5.2345  1862.5446 C.3      572 DA      0.0000
    776 N9         1.2416     4.1292  1862.6900 N.ar     572 DA      0.0000
    777 C8        -0.1300     4.2266  1862.7629 C.ar     572 DA      0.0000
    778 N7        -0.7278     3.0673  1862.8775 N.ar     572 DA      0.0000
    779 C5         0.3351     2.1464  1862.8711 C.ar     572 DA      0.0000
    780 C6         0.3399     0.7279  1862.9711 C.ar     572 DA      0.0000
    781 N6        -0.7658    -0.0122  1863.0939 N.pl3    572 DA      0.0000
    782 N1         1.5802     0.1653  1862.9359 N.ar     572 DA      0.0000
    783 C2         2.7026     0.9160  1862.8170 C.ar     572 DA      0.0000
    784 N3         2.7709     2.2472  1862.7256 N.ar     572 DA      0.0000
    785 C4         1.5416     2.7910  1862.7531 C.ar     572 DA      0.0000
    786 H5'        1.8778     9.1437  1864.1923 H        572 DA      0.0000
    787 H5''       1.9364     7.8292  1865.4107 H        572 DA      0.0000
    788 H4'        3.7666     7.6031  1863.6858 H        572 DA      0.0000
    789 H3'        2.0877     8.4171  1861.7078 H        572 DA      0.0000
    790 H2'        0.4351     6.5731  1862.2716 H        572 DA      0.0000
    791 H2''       1.2460     6.0774  1860.7386 H        572 DA      0.0000
    792 H1'        3.0461     4.9227  1861.9562 H        572 DA      0.0000
    793 H8        -0.6605     5.1667  1862.7288 H        572 DA      0.0000
    794 H2         3.6407     0.3816  1862.7938 H        572 DA      0.0000
    795 H61       -1.6717     0.4336  1863.1187 H        572 DA      0.0000
    796 H62       -0.6956    -1.0174  1863.1620 H        572 DA      0.0000
    797 P          4.1340     7.9492  1860.0474 P.3      571 DC      0.0000
    798 OP1        5.0613     8.8661  1860.8277 O.co2    571 DC      0.0000
    799 OP2        3.0847     8.6739  1859.3218 O.co2    571 DC      0.0000
    800 O5'        4.8475     6.8343  1859.0716 O.3      571 DC      0.0000
    801 C5'        5.7844     5.9062  1859.7406 C.3      571 DC      0.0000
    802 C4'        5.6561     4.5510  1859.0965 C.3      571 DC      0.0000
    803 O4'        4.7107     3.7005  1859.7337 O.3      571 DC      0.0000
    804 C3'        5.2361     4.6280  1857.6187 C.3      571 DC      0.0000
    805 O3'        5.7873     3.5982  1856.8074 O.3      571 DC      0.0000
    806 C2'        3.7008     4.3811  1857.7844 C.3      571 DC      0.0000
    807 C1'        3.9235     3.1070  1858.6800 C.3      571 DC      0.0000
    808 N1         2.6270     2.5283  1858.9179 N.am     571 DC      0.0000
    809 C2         2.5530     1.1817  1859.2350 C.2      571 DC      0.0000
    810 O2         3.4590     0.3524  1859.3755 O.2      571 DC      0.0000
    811 N3         1.3149     0.6364  1859.4332 N.2      571 DC      0.0000
    812 C4         0.1704     1.3763  1859.3172 C.2      571 DC      0.0000
    813 N4        -1.0224     0.8001  1859.5333 N.pl3    571 DC      0.0000
    814 C5         0.2622     2.7568  1858.9876 C.2      571 DC      0.0000
    815 C6         1.4843     3.2671  1858.7959 C.2      571 DC      0.0000
    816 H5'        6.8055     6.2709  1859.6291 H        571 DC      0.0000
    817 H5''       5.5349     5.8338  1860.7992 H        571 DC      0.0000
    818 H4'        6.6301     4.0640  1859.1433 H        571 DC      0.0000
    819 H3'        5.4369     5.6140  1857.1997 H        571 DC      0.0000
    820 H2'        3.1847     5.1900  1858.3015 H        571 DC      0.0000
    821 H2''       3.2234     4.1339  1856.8361 H        571 DC      0.0000
    822 H1'        4.5390     2.3912  1858.1350 H        571 DC      0.0000
    823 H5        -0.6217     3.3705  1858.8955 H        571 DC      0.0000
    824 H6         1.5712     4.3109  1858.5326 H        571 DC      0.0000
    825 H41       -1.0739    -0.1795  1859.7738 H        571 DC      0.0000
    826 H42       -1.8686     1.3460  1859.4554 H        571 DC      0.0000
    827 P         -4.2033    -9.0947  1893.4066 P.3      581 DG      0.0000
    828 OP1       -5.3914    -9.9836  1893.4051 O.co2    581 DG      0.0000
    829 OP2       -4.4628    -8.0101  1894.4623 O.co2    581 DG      0.0000
    830 O5'       -2.7843    -9.7919  1893.5850 O.3      581 DG      0.0000
    831 C5'       -1.7878   -10.0927  1892.5850 C.3      581 DG      0.0000
    832 C4'       -0.4511    -9.5847  1893.0838 C.3      581 DG      0.0000
    833 O4'       -0.1963    -8.2615  1892.6647 O.3      581 DG      0.0000
    834 C3'       -0.1902    -9.6236  1894.5760 C.3      581 DG      0.0000
    835 O3'        1.0369   -10.3366  1894.8880 O.3      581 DG      0.0000
    836 C2'       -0.1619    -8.1668  1894.9979 C.3      581 DG      0.0000
    837 C1'        0.2596    -7.4426  1893.7422 C.3      581 DG      0.0000
    838 N9        -0.3347    -6.0939  1893.7132 N.ar     581 DG      0.0000
    839 C8        -1.6345    -5.7085  1893.9421 C.ar     581 DG      0.0000
    840 N7        -1.8338    -4.4129  1893.8524 N.ar     581 DG      0.0000
    841 C5        -0.5763    -3.9056  1893.5353 C.ar     581 DG      0.0000
    842 C6        -0.1217    -2.5829  1893.3094 C.2      581 DG      0.0000
    843 O6        -0.7738    -1.5386  1893.3307 O.2      581 DG      0.0000
    844 N1         1.2119    -2.4657  1893.0279 N.am     581 DG      0.0000
    845 C2         2.0127    -3.4811  1892.9673 C.2      581 DG      0.0000
    846 N2         3.1943    -3.1002  1892.6705 N.pl3    581 DG      0.0000
    847 N3         1.6611    -4.8185  1893.1760 N.2      581 DG      0.0000
    848 C4         0.3527    -4.9255  1893.4486 C.ar     581 DG      0.0000
    849 H5'       -1.7374   -11.1699  1892.4263 H        581 DG      0.0000
    850 H5''      -2.0441    -9.5952  1891.6496 H        581 DG      0.0000
    851 H4'        0.3114   -10.2097  1892.6191 H        581 DG      0.0000
    852 H3'       -1.0253   -10.1204  1895.0700 H        581 DG      0.0000
    853 H2'       -1.1480    -7.8372  1895.3249 H        581 DG      0.0000
    854 H2''       0.5719    -8.0143  1895.7894 H        581 DG      0.0000
    855 H1'        1.3464    -7.3655  1893.7103 H        581 DG      0.0000
    856 H8        -2.4226    -6.4093  1894.1751 H        581 DG      0.0000
    857 H1         1.5892    -1.5440  1892.8595 H        581 DG      0.0000
    858 H21        3.3873    -2.1194  1892.5261 H        581 DG      0.0000
    859 H22        3.9361    -3.7795  1892.5800 H        581 DG      0.0000
    860 P          1.7077   -10.2948  1896.3165 P.3      582 DT      0.0000
    861 OP1        2.2712   -11.5952  1896.8282 O.co2    582 DT      0.0000
    862 OP2        0.5080   -10.0000  1897.2352 O.co2    582 DT      0.0000
    863 O5'        2.6788    -9.0869  1896.3451 O.3      582 DT      0.0000
    864 C5'        4.1195    -9.2222  1896.2011 C.3      582 DT      0.0000
    865 C4'        4.6437    -7.8026  1896.2586 C.3      582 DT      0.0000
    866 O4'        3.6387    -6.8516  1895.9835 O.3      582 DT      0.0000
    867 C3'        5.2392    -7.3603  1897.5714 C.3      582 DT      0.0000
    868 O3'        6.6397    -7.1094  1897.3831 O.3      582 DT      0.0000
    869 C2'        4.4881    -6.0882  1897.9636 C.3      582 DT      0.0000
    870 C1'        4.0403    -5.5990  1896.6108 C.3      582 DT      0.0000
    871 N1         2.8477    -4.7570  1896.7075 N.am     582 DT      0.0000
    872 C2         3.0078    -3.4123  1896.5095 C.2      582 DT      0.0000
    873 O2         4.1020    -2.9060  1896.2714 O.2      582 DT      0.0000
    874 N3         1.8858    -2.6322  1896.5906 N.am     582 DT      0.0000
    875 C4         0.6573    -3.1361  1896.8465 C.2      582 DT      0.0000
    876 O4        -0.2786    -2.2954  1896.8918 O.2      582 DT      0.0000
    877 C5         0.5087    -4.5462  1897.0462 C.2      582 DT      0.0000
    878 C7        -0.8320    -5.1434  1897.3261 C.3      582 DT      0.0000
    879 C6         1.6115    -5.3015  1896.9647 C.2      582 DT      0.0000
    880 H5'        4.5331    -9.8183  1897.0146 H        582 DT      0.0000
    881 H5''       4.3618    -9.6755  1895.2399 H        582 DT      0.0000
    882 H4'        5.4141    -7.7020  1895.4941 H        582 DT      0.0000
    883 H3'        5.0940    -8.1309  1898.3284 H        582 DT      0.0000
    884 H2'        3.6399    -6.3068  1898.6124 H        582 DT      0.0000
    885 H2''       5.1604    -5.3699  1898.4328 H        582 DT      0.0000
    886 H1'        4.8459    -5.1074  1896.0655 H        582 DT      0.0000
    887 H3         1.9798    -1.6361  1896.4531 H        582 DT      0.0000
    888 H6         1.5276    -6.3691  1897.1051 H        582 DT      0.0000
    889 H71       -1.2180    -5.6114  1896.4206 H        582 DT      0.0000
    890 H72       -1.5175    -4.3607  1897.6509 H        582 DT      0.0000
    891 H73       -0.7388    -5.8936  1898.1114 H        582 DT      0.0000
    892 P          7.5426    -7.5481  1898.6631 P.3      583 DG      0.0000
    893 OP1        8.7846    -8.0648  1897.9480 O.co2    583 DG      0.0000
    894 OP2        6.8289    -8.5635  1899.4166 O.co2    583 DG      0.0000
    895 O5'        7.7040    -6.0425  1899.2726 O.3      583 DG      0.0000
    896 C5'        8.0510    -5.1079  1898.1820 C.3      583 DG      0.0000
    897 C4'        7.8644    -3.7130  1898.7021 C.3      583 DG      0.0000
    898 O4'        6.5964    -3.1414  1898.5215 O.3      583 DG      0.0000
    899 C3'        8.1949    -3.5943  1900.2101 C.3      583 DG      0.0000
    900 O3'        9.1761    -2.5411  1900.3689 O.3      583 DG      0.0000
    901 C2'        6.8485    -3.3639  1900.8627 C.3      583 DG      0.0000
    902 C1'        6.1082    -2.5858  1899.7811 C.3      583 DG      0.0000
    903 N9         4.6544    -2.6869  1899.9506 N.ar     583 DG      0.0000
    904 C8         3.9063    -3.7814  1900.2868 C.ar     583 DG      0.0000
    905 N7         2.6137    -3.5564  1900.3726 N.ar     583 DG      0.0000
    906 C5         2.5095    -2.2070  1900.0426 C.ar     583 DG      0.0000
    907 C6         1.3710    -1.3565  1899.9482 C.2      583 DG      0.0000
    908 O6         0.1806    -1.6458  1900.1406 O.2      583 DG      0.0000
    909 N1         1.6607    -0.0536  1899.6132 N.am     583 DG      0.0000
    910 C2         2.9364     0.3662  1899.3894 C.2      583 DG      0.0000
    911 N2         3.0299     1.6662  1899.0806 N.pl3    583 DG      0.0000
    912 N3         4.0303    -0.3890  1899.4605 N.2      583 DG      0.0000
    913 C4         3.7495    -1.6622  1899.7870 C.ar     583 DG      0.0000
    914 H5'        9.0882    -5.2566  1897.8815 H        583 DG      0.0000
    915 H5''       7.3925    -5.2749  1897.3296 H        583 DG      0.0000
    916 H4'        8.5754    -3.0797  1898.1715 H        583 DG      0.0000
    917 H3'        8.6133    -4.5362  1900.5649 H        583 DG      0.0000
    918 H2'        6.3490    -4.3067  1901.0856 H        583 DG      0.0000
    919 H2''       6.9557    -2.7621  1901.7651 H        583 DG      0.0000
    920 H1'        6.3983    -1.5368  1899.8401 H        583 DG      0.0000
    921 H8         4.3424    -4.7528  1900.4675 H        583 DG      0.0000
    922 H1         0.9046     0.6110  1899.5309 H        583 DG      0.0000
    923 H21        2.1964     2.2345  1899.0304 H        583 DG      0.0000
    924 H22        3.9338     2.0782  1898.8979 H        583 DG      0.0000
    925 P          9.8224    -2.2275  1901.7574 P.3      584 DA      0.0000
    926 OP1       11.0593    -2.9871  1902.1127 O.co2    584 DA      0.0000
    927 OP2        8.6533    -2.7796  1902.6531 O.co2    584 DA      0.0000
    928 O5'        9.7874    -0.6618  1902.0065 O.3      584 DA      0.0000
    929 C5'        9.7019     0.3349  1900.9774 C.3      584 DA      0.0000
    930 C4'        8.6369     1.3104  1901.4518 C.3      584 DA      0.0000
    931 O4'        7.3567     0.7228  1901.3614 O.3      584 DA      0.0000
    932 C3'        8.7861     1.8326  1902.8808 C.3      584 DA      0.0000
    933 O3'        8.6196     3.2646  1902.9331 O.3      584 DA      0.0000
    934 C2'        7.6751     1.0732  1903.6163 C.3      584 DA      0.0000
    935 C1'        6.6021     1.1102  1902.5387 C.3      584 DA      0.0000
    936 N9         5.5022     0.1678  1902.7671 N.ar     584 DA      0.0000
    937 C8         5.5318    -1.1808  1902.9828 C.ar     584 DA      0.0000
    938 N7         4.3445    -1.7202  1903.1478 N.ar     584 DA      0.0000
    939 C5         3.4715    -0.6518  1903.0076 C.ar     584 DA      0.0000
    940 C6         2.0620    -0.5826  1903.0556 C.ar     584 DA      0.0000
    941 N6         1.2618    -1.6286  1903.2753 N.pl3    584 DA      0.0000
    942 N1         1.5331     0.6627  1902.8658 N.ar     584 DA      0.0000
    943 C2         2.3263     1.7371  1902.6480 C.ar     584 DA      0.0000
    944 N3         3.6574     1.7474  1902.5898 N.ar     584 DA      0.0000
    945 C4         4.1607     0.5136  1902.7766 C.ar     584 DA      0.0000
    946 H5'        9.4096    -0.1184  1900.0303 H        584 DA      0.0000
    947 H5''      10.6584     0.8464  1900.8697 H        584 DA      0.0000
    948 H4'        8.6542     2.1703  1900.7820 H        584 DA      0.0000
    949 H3'        9.7603     1.5535  1903.2822 H        584 DA      0.0000
    950 H2'        7.9717     0.0534  1903.8617 H        584 DA      0.0000
    951 H2''       7.3547     1.6133  1904.5072 H        584 DA      0.0000
    952 H1'        6.2153     2.1228  1902.4241 H        584 DA      0.0000
    953 H8         6.4478    -1.7521  1903.0149 H        584 DA      0.0000
    954 H2         1.8285     2.6851  1902.5067 H        584 DA      0.0000
    955 H61        1.5343    -2.5963  1903.1779 H        584 DA      0.0000
    956 H62        0.2725    -1.5195  1903.1038 H        584 DA      0.0000
    957 P          9.3497     4.1932  1904.0745 P.3      585 DA      0.0000
    958 OP1       10.2824     5.1732  1903.4075 O.co2    585 DA      0.0000
    959 OP2       10.0034     3.1617  1904.9055 O.co2    585 DA      0.0000
    960 O5'        8.1460     5.0957  1904.6054 O.3      585 DA      0.0000
    961 C5'        7.4178     6.0043  1903.7810 C.3      585 DA      0.0000
    962 C4'        5.9938     6.0780  1904.3034 C.3      585 DA      0.0000
    963 O4'        5.3973     4.8121  1904.3315 O.3      585 DA      0.0000
    964 C3'        5.7812     6.7043  1905.6707 C.3      585 DA      0.0000
    965 O3'        4.9987     7.8956  1905.5928 O.3      585 DA      0.0000
    966 C2'        5.1632     5.5713  1906.4994 C.3      585 DA      0.0000
    967 C1'        4.5329     4.6750  1905.5056 C.3      585 DA      0.0000
    968 N9         4.4138     3.2303  1905.7737 N.ar     585 DA      0.0000
    969 C8         5.3893     2.2698  1905.8888 C.ar     585 DA      0.0000
    970 N7         4.9277     1.0534  1906.0581 N.ar     585 DA      0.0000
    971 C5         3.5464     1.2149  1906.0211 C.ar     585 DA      0.0000
    972 C6         2.4793     0.2797  1906.1416 C.ar     585 DA      0.0000
    973 N6         2.6177    -1.0263  1906.3332 N.pl3    585 DA      0.0000
    974 N1         1.2157     0.8061  1906.0434 N.ar     585 DA      0.0000
    975 C2         1.0336     2.1453  1905.8543 C.ar     585 DA      0.0000
    976 N3         1.9811     3.0697  1905.7465 N.ar     585 DA      0.0000
    977 C4         3.2165     2.5379  1905.8383 C.ar     585 DA      0.0000
    978 H5'        7.4154     5.6477  1902.7510 H        585 DA      0.0000
    979 H5''       7.8776     6.9915  1903.8270 H        585 DA      0.0000
    980 H4'        5.4273     6.6774  1903.5906 H        585 DA      0.0000
    981 H3'        6.7541     6.9541  1906.0939 H        585 DA      0.0000
    982 H2'        5.9336     5.0416  1907.0597 H        585 DA      0.0000
    983 H2''       4.4097     5.9695  1907.1790 H        585 DA      0.0000
    984 H1'        3.5458     5.0664  1905.2595 H        585 DA      0.0000
    985 H8         6.4444     2.4962  1905.8440 H        585 DA      0.0000
    986 H2         0.0122     2.4894  1905.7852 H        585 DA      0.0000
    987 H61        3.4820    -1.4346  1906.6594 H        585 DA      0.0000
    988 H62        1.8318    -1.6326  1906.1464 H        585 DA      0.0000
    989 P          5.1657     9.2002  1906.5491 P.3      586 DT      0.0000
    990 OP1        5.0597    10.4953  1905.7517 O.co2    586 DT      0.0000
    991 OP2        6.3529     9.0844  1907.3697 O.co2    586 DT      0.0000
    992 O5'        3.7363     9.1971  1907.3628 O.3      586 DT      0.0000
    993 C5'        2.6397     8.8382  1906.4177 C.3      586 DT      0.0000
    994 C4'        1.7605     7.9004  1907.2054 C.3      586 DT      0.0000
    995 O4'        2.3243     6.6225  1907.3974 O.3      586 DT      0.0000
    996 C3'        1.4682     8.4288  1908.6220 C.3      586 DT      0.0000
    997 O3'        0.2038     9.0653  1908.6236 O.3      586 DT      0.0000
    998 C2'        1.5681     7.1976  1909.5192 C.3      586 DT      0.0000
    999 C1'        1.5507     6.0799  1908.5546 C.3      586 DT      0.0000
   1000 N1         2.1521     4.8001  1908.8944 N.am     586 DT      0.0000
   1001 C2         1.2893     3.7172  1909.0323 C.2      586 DT      0.0000
   1002 O2         0.0801     3.8873  1908.9443 O.2      586 DT      0.0000
   1003 N3         1.8286     2.4924  1909.2863 N.am     586 DT      0.0000
   1004 C4         3.1736     2.2892  1909.4064 C.2      586 DT      0.0000
   1005 O4         3.5987     1.1173  1909.6616 O.2      586 DT      0.0000
   1006 C5         4.0443     3.4154  1909.2349 C.2      586 DT      0.0000
   1007 C7         5.5352     3.2418  1909.3224 C.3      586 DT      0.0000
   1008 C6         3.5073     4.6208  1908.9791 C.2      586 DT      0.0000
   1009 H5'        2.0842     9.7262  1906.1160 H        586 DT      0.0000
   1010 H5''       3.0456     8.3306  1905.5426 H        586 DT      0.0000
   1011 H4'        0.8144     7.7859  1906.6763 H        586 DT      0.0000
   1012 H3'        2.2364     9.1478  1908.9063 H        586 DT      0.0000
   1013 H2'        2.4951     7.2055  1910.0926 H        586 DT      0.0000
   1014 H2''       0.7075     7.1401  1910.1856 H        586 DT      0.0000
   1015 H1'        0.5221     5.9088  1908.2373 H        586 DT      0.0000
   1016 H3         1.2083     1.7021  1909.3900 H        586 DT      0.0000
   1017 H6         4.1607     5.4690  1908.8369 H        586 DT      0.0000
   1018 H71        5.7682     2.1985  1909.5354 H        586 DT      0.0000
   1019 H72        5.9904     3.5293  1908.3746 H        586 DT      0.0000
   1020 H73        5.9282     3.8721  1910.1202 H        586 DT      0.0000
   1021 P         -0.4518     9.9344  1909.7303 P.3      587 DT      0.0000
   1022 OP1       -1.5312    10.8643  1909.1182 O.co2    587 DT      0.0000
   1023 OP2        0.6494    10.7075  1910.3602 O.co2    587 DT      0.0000
   1024 O5'       -1.2937     8.8929  1910.6126 O.3      587 DT      0.0000
   1025 C5'       -2.4471     8.3698  1909.9008 C.3      587 DT      0.0000
   1026 C4'       -2.9002     7.1226  1910.5770 C.3      587 DT      0.0000
   1027 O4'       -1.9388     6.0748  1910.5537 O.3      587 DT      0.0000
   1028 C3'       -3.3140     7.3107  1912.0436 C.3      587 DT      0.0000
   1029 O3'       -4.5121     6.6056  1912.3077 O.3      587 DT      0.0000
   1030 C2'       -2.1343     6.6326  1912.7799 C.3      587 DT      0.0000
   1031 C1'       -2.0051     5.4232  1911.8764 C.3      587 DT      0.0000
   1032 N1        -0.7976     4.6752  1912.1741 N.am     587 DT      0.0000
   1033 C2        -0.8731     3.2929  1912.2289 C.2      587 DT      0.0000
   1034 O2        -1.9614     2.7474  1912.0405 O.2      587 DT      0.0000
   1035 N3         0.2701     2.5933  1912.4948 N.am     587 DT      0.0000
   1036 C4         1.4662     3.2091  1912.7018 C.2      587 DT      0.0000
   1037 O4         2.4853     2.4951  1912.9251 O.2      587 DT      0.0000
   1038 C5         1.5329     4.6315  1912.6368 C.2      587 DT      0.0000
   1039 C7         2.8150     5.3831  1912.8467 C.3      587 DT      0.0000
   1040 C6         0.4005     5.3029  1912.3756 C.2      587 DT      0.0000
   1041 H5'       -3.2507     9.1062  1909.9133 H        587 DT      0.0000
   1042 H5''      -2.1709     8.1474  1908.8701 H        587 DT      0.0000
   1043 H4'       -3.7781     6.7656  1910.0385 H        587 DT      0.0000
   1044 H3'       -3.4006     8.3651  1912.3061 H        587 DT      0.0000
   1045 H2'       -1.2353     7.2490  1912.7787 H        587 DT      0.0000
   1046 H2''      -2.4139     6.3422  1913.7927 H        587 DT      0.0000
   1047 H1'       -2.8859     4.7857  1911.9520 H        587 DT      0.0000
   1048 H3         0.2261     1.5852  1912.5392 H        587 DT      0.0000
   1049 H6         0.4369     6.3810  1912.3226 H        587 DT      0.0000
   1050 H71        3.6219     4.6777  1913.0456 H        587 DT      0.0000
   1051 H72        3.0489     5.9591  1911.9514 H        587 DT      0.0000
   1052 H73        2.7055     6.0585  1913.6951 H        587 DT      0.0000
   1053 P         -5.9183     6.9457  1912.9156 P.3      588 DC      0.0000
   1054 OP1       -6.9952     6.9560  1911.8477 O.co2    588 DC      0.0000
   1055 OP2       -5.7301     8.2098  1913.6506 O.co2    588 DC      0.0000
   1056 O5'       -6.1010     5.5512  1913.7416 O.3      588 DC      0.0000
   1057 C5'       -5.8738     4.5126  1912.7194 C.3      588 DC      0.0000
   1058 C4'       -5.9532     3.1840  1913.4159 C.3      588 DC      0.0000
   1059 O4'       -4.6975     2.6314  1913.6628 O.3      588 DC      0.0000
   1060 C3'       -6.7633     3.1777  1914.7073 C.3      588 DC      0.0000
   1061 O3'       -7.8105     2.2198  1914.6277 O.3      588 DC      0.0000
   1062 C2'       -5.6688     2.9688  1915.7561 C.3      588 DC      0.0000
   1063 C1'       -4.6240     2.1902  1915.0597 C.3      588 DC      0.0000
   1064 N1        -3.2293     2.4976  1915.3918 N.am     588 DC      0.0000
   1065 C2        -2.4089     1.4010  1915.6476 C.2      588 DC      0.0000
   1066 O2        -2.8569     0.2503  1915.6521 O.2      588 DC      0.0000
   1067 N3        -1.0867     1.6504  1915.9214 N.2      588 DC      0.0000
   1068 C4        -0.5843     2.9184  1915.9115 C.2      588 DC      0.0000
   1069 N4         0.7076     3.0569  1916.1884 N.pl3    588 DC      0.0000
   1070 C5        -1.4245     4.0190  1915.6335 C.2      588 DC      0.0000
   1071 C6        -2.7210     3.7577  1915.3687 C.2      588 DC      0.0000
   1072 H5'       -6.6391     4.5756  1911.9457 H        588 DC      0.0000
   1073 H5''      -4.8866     4.6397  1912.2752 H        588 DC      0.0000
   1074 H4'       -6.4600     2.5053  1912.7299 H        588 DC      0.0000
   1075 H3'       -7.2020     4.1652  1914.8506 H        588 DC      0.0000
   1076 H2'       -5.2729     3.9265  1916.0940 H        588 DC      0.0000
   1077 H2''      -6.0599     2.4030  1916.6016 H        588 DC      0.0000
   1078 H1'       -4.8167     1.1205  1915.1406 H        588 DC      0.0000
   1079 H5        -1.0440     5.0297  1915.6329 H        588 DC      0.0000
   1080 H6        -3.3793     4.5799  1915.1297 H        588 DC      0.0000
   1081 H41        1.2715     2.2430  1916.3876 H        588 DC      0.0000
   1082 H42        1.1259     3.9761  1916.1997 H        588 DC      0.0000
   1083 P         -9.1227     2.1486  1915.5797 P.3      589 DA      0.0000
   1084 OP1      -10.2088     1.4482  1914.7860 O.co2    589 DA      0.0000
   1085 OP2       -9.5055     3.5328  1915.9252 O.co2    589 DA      0.0000
   1086 O5'       -8.6245     1.2668  1916.8767 O.3      589 DA      0.0000
   1087 C5'       -8.0077    -0.0238  1916.5815 C.3      589 DA      0.0000
   1088 C4'       -7.5157    -0.6664  1917.8368 C.3      589 DA      0.0000
   1089 O4'       -6.1122    -0.5299  1918.0789 O.3      589 DA      0.0000
   1090 C3'       -8.1240    -0.1267  1919.1420 C.3      589 DA      0.0000
   1091 O3'       -7.9273    -1.0981  1920.1719 O.3      589 DA      0.0000
   1092 C2'       -7.2092     1.0957  1919.3566 C.3      589 DA      0.0000
   1093 C1'       -5.8809     0.3539  1919.1733 C.3      589 DA      0.0000
   1094 N9        -4.8013     1.3219  1919.0790 N.ar     589 DA      0.0000
   1095 C8        -4.8340     2.6840  1918.9632 C.ar     589 DA      0.0000
   1096 N7        -3.6507     3.2709  1918.9446 N.ar     589 DA      0.0000
   1097 C5        -2.7678     2.2057  1919.0521 C.ar     589 DA      0.0000
   1098 C6        -1.3527     2.1457  1919.0866 C.ar     589 DA      0.0000
   1099 N6        -0.5561     3.1959  1919.0014 N.pl3    589 DA      0.0000
   1100 N1        -0.8067     0.9011  1919.2192 N.ar     589 DA      0.0000
   1101 C2        -1.5954    -0.2156  1919.2994 C.ar     589 DA      0.0000
   1102 N3        -2.9258    -0.2398  1919.2695 N.ar     589 DA      0.0000
   1103 C4        -3.4506     1.0040  1919.1465 C.ar     589 DA      0.0000
   1104 H5'       -8.7445    -0.6742  1916.1103 H        589 DA      0.0000
   1105 H5''      -7.1698     0.1246  1915.9002 H        589 DA      0.0000
   1106 H4'       -7.7424    -1.7309  1917.7779 H        589 DA      0.0000
   1107 H3'       -9.1715     0.1526  1919.0283 H        589 DA      0.0000
   1108 H2'       -7.3630     1.8708  1918.6058 H        589 DA      0.0000
   1109 H2''      -7.3070     1.4942  1920.3665 H        589 DA      0.0000
   1110 H1'       -5.7104    -0.2523  1920.0630 H        589 DA      0.0000
   1111 H8        -5.7581     3.2385  1918.8922 H        589 DA      0.0000
   1112 H2        -1.0906    -1.1655  1919.3958 H        589 DA      0.0000
   1113 H61        0.4256     3.3508  1919.1814 H        589 DA      0.0000
   1114 H62       -1.0344     4.0279  1918.6866 H        589 DA      0.0000
   1115 P         -8.8872    -2.3707  1920.3124 P.3      590 DC      0.0000
   1116 OP1       -9.6486    -2.6726  1919.0673 O.co2    590 DC      0.0000
   1117 OP2       -9.7759    -1.9731  1921.4553 O.co2    590 DC      0.0000
   1118 O5'       -7.8769    -3.5597  1920.5955 O.3      590 DC      0.0000
   1119 C5'       -7.1650    -4.2238  1919.5078 C.3      590 DC      0.0000
   1120 C4'       -5.8820    -4.6783  1920.2128 C.3      590 DC      0.0000
   1121 O4'       -5.1415    -3.5212  1920.5248 O.3      590 DC      0.0000
   1122 C3'       -6.1297    -5.4219  1921.5227 C.3      590 DC      0.0000
   1123 O3'       -5.4363    -6.6885  1921.5906 O.3      590 DC      0.0000
   1124 C2'       -5.6842    -4.4268  1922.6049 C.3      590 DC      0.0000
   1125 C1'       -4.6070    -3.6800  1921.9287 C.3      590 DC      0.0000
   1126 N1        -4.3008    -2.2961  1922.2815 N.am     590 DC      0.0000
   1127 C2        -2.9477    -1.9637  1922.2547 C.2      590 DC      0.0000
   1128 O2        -2.0676    -2.7897  1922.0477 O.2      590 DC      0.0000
   1129 N3        -2.6172    -0.6688  1922.5078 N.2      590 DC      0.0000
   1130 C4        -3.5482     0.2876  1922.7411 C.2      590 DC      0.0000
   1131 N4        -3.1012     1.5205  1922.9721 N.pl3    590 DC      0.0000
   1132 C5        -4.9268    -0.0614  1922.7477 C.2      590 DC      0.0000
   1133 C6        -5.2453    -1.3410  1922.4983 C.2      590 DC      0.0000
   1134 H5'       -7.7297    -5.0730  1919.1230 H        590 DC      0.0000
   1135 H5''      -6.9369    -3.5183  1918.7088 H        590 DC      0.0000
   1136 H4'       -5.3023    -5.3104  1919.5401 H        590 DC      0.0000
   1137 H3'       -7.1997    -5.6007  1921.6286 H        590 DC      0.0000
   1138 H2'       -6.5017    -3.7653  1922.8919 H        590 DC      0.0000
   1139 H2''      -5.2958    -4.9557  1923.4752 H        590 DC      0.0000
   1140 H1'       -3.6926    -4.2732  1921.9155 H        590 DC      0.0000
   1141 H5        -5.6898     0.6767  1922.9462 H        590 DC      0.0000
   1142 H6        -6.2876    -1.6224  1922.4685 H        590 DC      0.0000
   1143 H41       -2.1088     1.7082  1922.9610 H        590 DC      0.0000
   1144 H42       -3.7545     2.2680  1923.1582 H        590 DC      0.0000
   1145 P          6.3366     5.6475  1924.5501 P.3      590 DG      0.0000
   1146 OP1        7.3995     6.6844  1924.7289 O.co2    590 DG      0.0000
   1147 OP2        5.3297     6.0064  1923.4653 O.co2    590 DG      0.0000
   1148 O5'        7.0408     4.1743  1924.3429 O.3      590 DG      0.0000
   1149 C5'        6.9965     3.2010  1925.4386 C.3      590 DG      0.0000
   1150 C4'        6.7944     1.8269  1924.8044 C.3      590 DG      0.0000
   1151 O4'        5.4381     1.4870  1924.7085 O.3      590 DG      0.0000
   1152 C3'        7.3716     1.6892  1923.3980 C.3      590 DG      0.0000
   1153 O3'        7.9959     0.4121  1923.1310 O.3      590 DG      0.0000
   1154 C2'        6.1454     1.9171  1922.4957 C.3      590 DG      0.0000
   1155 C1'        5.0580     1.2477  1923.3196 C.3      590 DG      0.0000
   1156 N9         3.7407     1.8473  1923.0462 N.ar     590 DG      0.0000
   1157 C8         3.4340     3.1781  1922.8896 C.ar     590 DG      0.0000
   1158 N7         2.1667     3.4088  1922.6712 N.ar     590 DG      0.0000
   1159 C5         1.5925     2.1432  1922.6960 C.ar     590 DG      0.0000
   1160 C6         0.2452     1.7216  1922.5395 C.2      590 DG      0.0000
   1161 O6        -0.7394     2.4479  1922.3427 O.2      590 DG      0.0000
   1162 N1         0.0644     0.3632  1922.6264 N.am     590 DG      0.0000
   1163 C2         1.0871    -0.4987  1922.8471 C.2      590 DG      0.0000
   1164 N2         0.7600    -1.7865  1922.9104 N.pl3    590 DG      0.0000
   1165 N3         2.3711    -0.1546  1923.0048 N.2      590 DG      0.0000
   1166 C4         2.5478     1.1783  1922.9215 C.ar     590 DG      0.0000
   1167 H5'        7.9327     3.2221  1925.9964 H        590 DG      0.0000
   1168 H5''       6.1634     3.4288  1926.1036 H        590 DG      0.0000
   1169 H4'        7.2814     1.0883  1925.4411 H        590 DG      0.0000
   1170 H3'        8.0960     2.4857  1923.2275 H        590 DG      0.0000
   1171 H2'        5.9442     2.9789  1922.3531 H        590 DG      0.0000
   1172 H2''       6.2706     1.4140  1921.5370 H        590 DG      0.0000
   1173 H1'        5.0347     0.1774  1923.1143 H        590 DG      0.0000
   1174 H8         4.1743     3.9627  1922.9423 H        590 DG      0.0000
   1175 H1        -0.8686    -0.0089  1922.5216 H        590 DG      0.0000
   1176 H21       -0.2028    -2.0692  1922.7954 H        590 DG      0.0000
   1177 H22        1.4743    -2.4816  1923.0736 H        590 DG      0.0000
   1178 P          7.9407    -0.0818  1921.6075 P.3      589 DT      0.0000
   1179 OP1        9.0890    -0.9727  1921.2166 O.co2    589 DT      0.0000
   1180 OP2        8.0111     1.2241  1920.9070 O.co2    589 DT      0.0000
   1181 O5'        6.5570    -0.8790  1921.4766 O.3      589 DT      0.0000
   1182 C5'        6.5970    -2.3173  1921.7443 C.3      589 DT      0.0000
   1183 C4'        5.4646    -2.9763  1920.9872 C.3      589 DT      0.0000
   1184 O4'        4.2872    -2.1892  1920.9599 O.3      589 DT      0.0000
   1185 C3'        5.8056    -3.2602  1919.5325 C.3      589 DT      0.0000
   1186 O3'        5.2770    -4.5096  1919.0374 O.3      589 DT      0.0000
   1187 C2'        5.2121    -2.0714  1918.8097 C.3      589 DT      0.0000
   1188 C1'        3.9142    -1.9310  1919.5878 C.3      589 DT      0.0000
   1189 N1         3.4785    -0.5338  1919.4365 N.am     589 DT      0.0000
   1190 C2         2.1111    -0.3015  1919.5432 C.2      589 DT      0.0000
   1191 O2         1.3354    -1.2323  1919.7330 O.2      589 DT      0.0000
   1192 N3         1.6866     0.9922  1919.4231 N.am     589 DT      0.0000
   1193 C4         2.5557     2.0189  1919.2055 C.2      589 DT      0.0000
   1194 O4         2.0656     3.1924  1919.1079 O.2      589 DT      0.0000
   1195 C5         3.9502     1.7499  1919.0991 C.2      589 DT      0.0000
   1196 C7         4.9183     2.8750  1918.8702 C.3      589 DT      0.0000
   1197 C6         4.3592     0.4844  1919.2209 C.2      589 DT      0.0000
   1198 H5'        7.5503    -2.7272  1921.4106 H        589 DT      0.0000
   1199 H5''       6.4757    -2.4948  1922.8129 H        589 DT      0.0000
   1200 H4'        5.2321    -3.9228  1921.4752 H        589 DT      0.0000
   1201 H3'        6.8885    -3.2530  1919.4085 H        589 DT      0.0000
   1202 H2'        5.8394    -1.1847  1918.9012 H        589 DT      0.0000
   1203 H2''       5.0175    -2.3068  1917.7633 H        589 DT      0.0000
   1204 H1'        3.1556    -2.6308  1919.2371 H        589 DT      0.0000
   1205 H3         0.6996     1.1932  1919.4978 H        589 DT      0.0000
   1206 H6         5.4135     0.2622  1919.1467 H        589 DT      0.0000
   1207 H71        4.3727     3.8161  1918.8015 H        589 DT      0.0000
   1208 H72        5.6221     2.9231  1919.7011 H        589 DT      0.0000
   1209 H73        5.4632     2.7023  1917.9420 H        589 DT      0.0000
   1210 P          6.5176    -5.2905  1918.2590 P.3      588 DG      0.0000
   1211 OP1        7.2490    -6.2590  1919.1303 O.co2    588 DG      0.0000
   1212 OP2        7.3055    -4.0998  1917.8535 O.co2    588 DG      0.0000
   1213 O5'        5.6969    -6.1348  1917.1782 O.3      588 DG      0.0000
   1214 C5'        5.0265    -7.3491  1917.6017 C.3      588 DG      0.0000
   1215 C4'        3.5811    -7.1722  1917.1540 C.3      588 DG      0.0000
   1216 O4'        3.1582    -5.8507  1917.4247 O.3      588 DG      0.0000
   1217 C3'        3.3454    -7.4331  1915.6662 C.3      588 DG      0.0000
   1218 O3'        2.3552    -8.4241  1915.4577 O.3      588 DG      0.0000
   1219 C2'        3.0321    -6.0640  1915.0895 C.3      588 DG      0.0000
   1220 C1'        2.4579    -5.3258  1916.2757 C.3      588 DG      0.0000
   1221 N9         2.6805    -3.8827  1916.1521 N.ar     588 DG      0.0000
   1222 C8         3.8632    -3.2175  1915.9932 C.ar     588 DG      0.0000
   1223 N7         3.7300    -1.9158  1915.9152 N.ar     588 DG      0.0000
   1224 C5         2.3608    -1.7071  1916.0527 C.ar     588 DG      0.0000
   1225 C6         1.5798    -0.5215  1916.0622 C.2      588 DG      0.0000
   1226 O6         1.9840     0.6326  1915.9631 O.2      588 DG      0.0000
   1227 N1         0.2375    -0.7263  1916.2111 N.am     588 DG      0.0000
   1228 C2        -0.2988    -1.9842  1916.3440 C.2      588 DG      0.0000
   1229 N2        -1.6241    -2.0409  1916.4797 N.pl3    588 DG      0.0000
   1230 N3         0.3775    -3.1374  1916.3483 N.2      588 DG      0.0000
   1231 C4         1.7061    -2.9185  1916.1976 C.ar     588 DG      0.0000
   1232 H5'        5.4726    -8.2208  1917.1229 H        588 DG      0.0000
   1233 H5''       5.0757    -7.4482  1918.6860 H        588 DG      0.0000
   1234 H4'        2.9567    -7.8577  1917.7270 H        588 DG      0.0000
   1235 H3'        4.2795    -7.7843  1915.2276 H        588 DG      0.0000
   1236 H2'        3.9353    -5.5761  1914.7232 H        588 DG      0.0000
   1237 H2''       2.2913    -6.1444  1914.2940 H        588 DG      0.0000
   1238 H1'        1.3912    -5.5325  1916.3627 H        588 DG      0.0000
   1239 H8         4.8188    -3.7175  1915.9371 H        588 DG      0.0000
   1240 H1        -0.3805     0.0725  1916.2240 H        588 DG      0.0000
   1241 H21       -2.1685    -1.1902  1916.4806 H        588 DG      0.0000
   1242 H22       -2.0835    -2.9345  1916.5814 H        588 DG      0.0000
   1243 P          1.0373    -8.5240  1914.5914 P.3      587 DA      0.0000
   1244 OP1       -0.0531    -9.2679  1915.3728 O.co2    587 DA      0.0000
   1245 OP2        1.4202    -9.2830  1913.3987 O.co2    587 DA      0.0000
   1246 O5'        0.4912    -6.9991  1914.4166 O.3      587 DA      0.0000
   1247 C5'       -0.3253    -6.5781  1915.5731 C.3      587 DA      0.0000
   1248 C4'       -1.7129    -6.3092  1915.0453 C.3      587 DA      0.0000
   1249 O4'       -1.9479    -4.9419  1914.8230 O.3      587 DA      0.0000
   1250 C3'       -1.9829    -6.9914  1913.7048 C.3      587 DA      0.0000
   1251 O3'       -3.2758    -7.5428  1913.6296 O.3      587 DA      0.0000
   1252 C2'       -1.6196    -5.9053  1912.7082 C.3      587 DA      0.0000
   1253 C1'       -1.7679    -4.5963  1913.4320 C.3      587 DA      0.0000
   1254 N9        -0.6089    -3.7158  1913.2065 N.ar     587 DA      0.0000
   1255 C8         0.7136    -4.0555  1913.0202 C.ar     587 DA      0.0000
   1256 N7         1.5131    -3.0324  1912.8243 N.ar     587 DA      0.0000
   1257 C5         0.6589    -1.9402  1912.9111 C.ar     587 DA      0.0000
   1258 C6         0.9027    -0.5509  1912.8055 C.ar     587 DA      0.0000
   1259 N6         2.0974    -0.0279  1912.5930 N.pl3    587 DA      0.0000
   1260 N1        -0.1850     0.2589  1912.9292 N.ar     587 DA      0.0000
   1261 C2        -1.4310    -0.2536  1913.1537 C.ar     587 DA      0.0000
   1262 N3        -1.7268    -1.5466  1913.2696 N.ar     587 DA      0.0000
   1263 C4        -0.6379    -2.3413  1913.1335 C.ar     587 DA      0.0000
   1264 H5'       -0.3545    -7.3703  1916.3211 H        587 DA      0.0000
   1265 H5''       0.0890    -5.6693  1916.0097 H        587 DA      0.0000
   1266 H4'       -2.4383    -6.6730  1915.7729 H        587 DA      0.0000
   1267 H3'       -1.2650    -7.8038  1913.5917 H        587 DA      0.0000
   1268 H2'       -2.2923    -5.9402  1911.8513 H        587 DA      0.0000
   1269 H2''      -0.5888    -6.0332  1912.3777 H        587 DA      0.0000
   1270 H1'       -2.6670    -4.0949  1913.0738 H        587 DA      0.0000
   1271 H8         1.0632    -5.0773  1913.0341 H        587 DA      0.0000
   1272 H2        -2.2454     0.4498  1913.2450 H        587 DA      0.0000
   1273 H61        2.3231     0.9047  1912.9084 H        587 DA      0.0000
   1274 H62        2.7971    -0.5702  1912.1068 H        587 DA      0.0000
   1275 P         -4.3198    -7.6034  1912.4450 P.3      586 DA      0.0000
   1276 OP1       -5.7063    -8.0835  1912.9649 O.co2    586 DA      0.0000
   1277 OP2       -3.7674    -8.6337  1911.5113 O.co2    586 DA      0.0000
   1278 O5'       -4.5475    -6.1278  1911.9423 O.3      586 DA      0.0000
   1279 C5'       -5.6939    -5.3800  1912.3981 C.3      586 DA      0.0000
   1280 C4'       -5.6548    -4.0401  1911.6962 C.3      586 DA      0.0000
   1281 O4'       -4.3737    -3.4907  1911.5754 O.3      586 DA      0.0000
   1282 C3'       -6.2487    -4.0721  1910.2887 C.3      586 DA      0.0000
   1283 O3'       -7.4497    -3.2780  1910.2572 O.3      586 DA      0.0000
   1284 C2'       -5.0816    -3.6613  1909.3891 C.3      586 DA      0.0000
   1285 C1'       -4.2417    -2.8042  1910.2869 C.3      586 DA      0.0000
   1286 N9        -2.8147    -2.7505  1909.9873 N.ar     586 DA      0.0000
   1287 C8        -1.9237    -3.7857  1909.7926 C.ar     586 DA      0.0000
   1288 N7        -0.6874    -3.3897  1909.5871 N.ar     586 DA      0.0000
   1289 C5        -0.7570    -2.0122  1909.6617 C.ar     586 DA      0.0000
   1290 C6         0.2291    -1.0091  1909.5282 C.ar     586 DA      0.0000
   1291 N6         1.5120    -1.2597  1909.2850 N.pl3    586 DA      0.0000
   1292 N1        -0.2227     0.2776  1909.6770 N.ar     586 DA      0.0000
   1293 C2        -1.5149     0.5616  1909.9295 C.ar     586 DA      0.0000
   1294 N3        -2.4994    -0.3314  1910.0684 N.ar     586 DA      0.0000
   1295 C4        -2.0513    -1.5981  1909.9212 C.ar     586 DA      0.0000
   1296 H5'       -6.6118    -5.9095  1912.1430 H        586 DA      0.0000
   1297 H5''      -5.6371    -5.2352  1913.4769 H        586 DA      0.0000
   1298 H4'       -6.2527    -3.3456  1912.2863 H        586 DA      0.0000
   1299 H3'       -6.5147    -5.1026  1910.0537 H        586 DA      0.0000
   1300 H2'       -4.5243    -4.5343  1909.0492 H        586 DA      0.0000
   1301 H2''      -5.4414    -3.0836  1908.5378 H        586 DA      0.0000
   1302 H1'       -4.6556    -1.7977  1910.3480 H        586 DA      0.0000
   1303 H8        -2.2153    -4.8255  1909.8075 H        586 DA      0.0000
   1304 H2        -1.7790     1.6041  1910.0286 H        586 DA      0.0000
   1305 H61        2.1557    -0.5390  1909.5790 H        586 DA      0.0000
   1306 H62        1.8212    -2.1108  1908.8377 H        586 DA      0.0000
   1307 P         -8.2594    -3.1429  1908.8723 P.3      585 DT      0.0000
   1308 OP1       -9.6499    -2.5895  1908.9304 O.co2    585 DT      0.0000
   1309 OP2       -8.1477    -4.5428  1908.3596 O.co2    585 DT      0.0000
   1310 O5'       -7.3160    -1.9625  1908.1691 O.3      585 DT      0.0000
   1311 C5'       -6.9710    -0.9691  1909.1814 C.3      585 DT      0.0000
   1312 C4'       -6.6196     0.3139  1908.4985 C.3      585 DT      0.0000
   1313 O4'       -5.2465     0.4924  1908.3181 O.3      585 DT      0.0000
   1314 C3'       -7.2736     0.4937  1907.1372 C.3      585 DT      0.0000
   1315 O3'       -7.6549     1.8488  1906.8699 O.3      585 DT      0.0000
   1316 C2'       -6.1546    -0.0575  1906.2439 C.3      585 DT      0.0000
   1317 C1'       -4.9245     0.5496  1906.8839 C.3      585 DT      0.0000
   1318 N1        -3.7328    -0.2888  1906.6539 N.am     585 DT      0.0000
   1319 C2        -2.5132     0.3537  1906.5323 C.2      585 DT      0.0000
   1320 O2        -2.4342     1.5826  1906.5691 O.2      585 DT      0.0000
   1321 N3        -1.3952    -0.4175  1906.3649 N.am     585 DT      0.0000
   1322 C4        -1.4585    -1.7752  1906.3164 C.2      585 DT      0.0000
   1323 O4        -0.3764    -2.4080  1906.1309 O.2      585 DT      0.0000
   1324 C5        -2.7199    -2.4170  1906.4648 C.2      585 DT      0.0000
   1325 C7        -2.8286    -3.9223  1906.4127 C.3      585 DT      0.0000
   1326 C6        -3.8015    -1.6501  1906.6378 C.2      585 DT      0.0000
   1327 H5'       -7.8222    -0.8102  1909.8435 H        585 DT      0.0000
   1328 H5''      -6.1174    -1.3199  1909.7615 H        585 DT      0.0000
   1329 H4'       -6.9703     1.1258  1909.1355 H        585 DT      0.0000
   1330 H3'       -8.1487    -0.1520  1907.0652 H        585 DT      0.0000
   1331 H2'       -6.1220    -1.1466  1906.2745 H        585 DT      0.0000
   1332 H2''      -6.2702     0.2959  1905.2193 H        585 DT      0.0000
   1333 H1'       -4.7636     1.5747  1906.5500 H        585 DT      0.0000
   1334 H3        -0.4966     0.0349  1906.2748 H        585 DT      0.0000
   1335 H6        -4.7624    -2.1254  1906.7692 H        585 DT      0.0000
   1336 H71       -3.1147    -4.2319  1905.4075 H        585 DT      0.0000
   1337 H72       -3.5837    -4.2567  1907.1243 H        585 DT      0.0000
   1338 H73       -1.8663    -4.3652  1906.6692 H        585 DT      0.0000
   1339 P         -8.2675     2.1305  1905.3800 P.3      584 DT      0.0000
   1340 OP1       -9.7372     2.5282  1905.5280 O.co2    584 DT      0.0000
   1341 OP2       -8.1717     0.7897  1904.7102 O.co2    584 DT      0.0000
   1342 O5'       -7.4191     3.2519  1904.7280 O.3      584 DT      0.0000
   1343 C5'       -6.7689     4.2770  1905.4794 C.3      584 DT      0.0000
   1344 C4'       -5.5462     4.7024  1904.7314 C.3      584 DT      0.0000
   1345 O4'       -4.4572     3.8213  1904.6744 O.3      584 DT      0.0000
   1346 C3'       -5.7283     5.1516  1903.2653 C.3      584 DT      0.0000
   1347 O3'       -4.7416     6.1825  1903.1616 O.3      584 DT      0.0000
   1348 C2'       -5.3205     3.8847  1902.5016 C.3      584 DT      0.0000
   1349 C1'       -4.0507     3.6001  1903.2773 C.3      584 DT      0.0000
   1350 N1        -3.5287     2.2347  1903.1712 N.am     584 DT      0.0000
   1351 C2        -2.1317     2.1241  1903.1705 C.2      584 DT      0.0000
   1352 O2        -1.4141     3.1255  1903.2136 O.2      584 DT      0.0000
   1353 N3        -1.6086     0.8641  1903.1171 N.am     584 DT      0.0000
   1354 C4        -2.3846    -0.2552  1903.0573 C.2      584 DT      0.0000
   1355 O4        -1.8033    -1.3801  1902.9949 O.2      584 DT      0.0000
   1356 C5        -3.7991    -0.1141  1903.0656 C.2      584 DT      0.0000
   1357 C7        -4.6734    -1.3492  1903.0041 C.3      584 DT      0.0000
   1358 C6        -4.3064     1.1202  1903.1321 C.2      584 DT      0.0000
   1359 H5'       -7.4404     5.1268  1905.6016 H        584 DT      0.0000
   1360 H5''      -6.4844     3.8903  1906.4580 H        584 DT      0.0000
   1361 H4'       -5.1776     5.5823  1905.2586 H        584 DT      0.0000
   1362 H3'       -6.7384     5.4913  1903.0366 H        584 DT      0.0000
   1363 H2'       -5.1294     4.0780  1901.4460 H        584 DT      0.0000
   1364 H2''      -6.0532     3.0885  1902.6332 H        584 DT      0.0000
   1365 H1'       -3.2772     4.3157  1902.9983 H        584 DT      0.0000
   1366 H3        -0.6044     0.7567  1903.1220 H        584 DT      0.0000
   1367 H6        -5.3798     1.2376  1903.1558 H        584 DT      0.0000
   1368 H71       -4.0445    -2.2382  1902.9553 H        584 DT      0.0000
   1369 H72       -5.3058    -1.3027  1902.1176 H        584 DT      0.0000
   1370 H73       -5.2996    -1.3958  1903.8951 H        584 DT      0.0000
   1371 P         -4.5955     7.2195  1902.0154 P.3      583 DC      0.0000
   1372 OP1       -4.4487     8.6151  1902.6245 O.co2    583 DC      0.0000
   1373 OP2       -5.8693     7.1437  1901.2335 O.co2    583 DC      0.0000
   1374 O5'       -3.2468     6.6823  1901.2760 O.3      583 DC      0.0000
   1375 C5'       -2.0000     6.9426  1902.0005 C.3      583 DC      0.0000
   1376 C4'       -0.9476     7.1853  1900.9499 C.3      583 DC      0.0000
   1377 O4'       -0.1645     6.0403  1900.7047 O.3      583 DC      0.0000
   1378 C3'       -1.4780     7.6287  1899.5855 C.3      583 DC      0.0000
   1379 O3'       -0.6219     8.5269  1898.8762 O.3      583 DC      0.0000
   1380 C2'       -1.6706     6.2693  1898.8994 C.3      583 DC      0.0000
   1381 C1'       -0.4988     5.4560  1899.4460 C.3      583 DC      0.0000
   1382 N1        -0.9378     4.0456  1899.5638 N.am     583 DC      0.0000
   1383 C2         0.0591     3.0711  1899.5810 C.2      583 DC      0.0000
   1384 O2         1.2569     3.3790  1899.5123 O.2      583 DC      0.0000
   1385 N3        -0.3419     1.7665  1899.6843 N.2      583 DC      0.0000
   1386 C4        -1.6531     1.4173  1899.7550 C.2      583 DC      0.0000
   1387 N4        -1.9943     0.1309  1899.8569 N.pl3    583 DC      0.0000
   1388 C5        -2.6505     2.4317  1899.7299 C.2      583 DC      0.0000
   1389 C6        -2.2557     3.7130  1899.6363 C.2      583 DC      0.0000
   1390 H5'       -2.1088     7.8211  1902.6364 H        583 DC      0.0000
   1391 H5''      -1.7314     6.0758  1902.6044 H        583 DC      0.0000
   1392 H4'       -0.2847     7.9680  1901.3187 H        583 DC      0.0000
   1393 H3'       -2.4520     8.0991  1899.7197 H        583 DC      0.0000
   1394 H2'       -1.6130     6.3635  1897.8150 H        583 DC      0.0000
   1395 H2''      -2.6192     5.8214  1899.1953 H        583 DC      0.0000
   1396 H1'        0.3507     5.5253  1898.7666 H        583 DC      0.0000
   1397 H5        -3.6990     2.1783  1899.7846 H        583 DC      0.0000
   1398 H6        -3.0000     4.4954  1899.6182 H        583 DC      0.0000
   1399 H41       -1.2785    -0.5813  1899.8776 H        583 DC      0.0000
   1400 H42       -2.9683    -0.1303  1899.9133 H        583 DC      0.0000
   1401 P         -0.3895     8.5527  1897.2442 P.3      582 DA      0.0000
   1402 OP1        0.0911     9.9339  1896.8547 O.co2    582 DA      0.0000
   1403 OP2       -1.7088     8.1666  1896.6742 O.co2    582 DA      0.0000
   1404 O5'        0.8306     7.5365  1897.0787 O.3      582 DA      0.0000
   1405 C5'        2.1653     7.9765  1897.5441 C.3      582 DA      0.0000
   1406 C4'        3.0881     7.1478  1896.6668 C.3      582 DA      0.0000
   1407 O4'        2.8876     5.7540  1896.9342 O.3      582 DA      0.0000
   1408 C3'        2.8008     7.2995  1895.1624 C.3      582 DA      0.0000
   1409 O3'        3.8833     6.8324  1894.3734 O.3      582 DA      0.0000
   1410 C2'        1.6828     6.2575  1894.9750 C.3      582 DA      0.0000
   1411 C1'        2.4305     5.1244  1895.7296 C.3      582 DA      0.0000
   1412 N9         1.4372     4.0653  1895.8750 N.ar     582 DA      0.0000
   1413 C8         0.0718     4.2280  1895.9479 C.ar     582 DA      0.0000
   1414 N7        -0.5807     3.0985  1896.0625 N.ar     582 DA      0.0000
   1415 C5         0.4371     2.1279  1896.0562 C.ar     582 DA      0.0000
   1416 C6         0.3742     0.7109  1896.1561 C.ar     582 DA      0.0000
   1417 N6        -0.7655     0.0244  1896.2789 N.pl3    582 DA      0.0000
   1418 N1         1.5862     0.0897  1896.1209 N.ar     582 DA      0.0000
   1419 C2         2.7432     0.7860  1896.0021 C.ar     582 DA      0.0000
   1420 N3         2.8750     2.1125  1895.9106 N.ar     582 DA      0.0000
   1421 C4         1.6730     2.7143  1895.9381 C.ar     582 DA      0.0000
   1422 H5'        2.3119     9.0437  1897.3774 H        582 DA      0.0000
   1423 H5''       2.3077     7.7279  1898.5958 H        582 DA      0.0000
   1424 H4'        4.1251     7.4147  1896.8708 H        582 DA      0.0000
   1425 H3'        2.4869     8.3079  1894.8928 H        582 DA      0.0000
   1426 H2'        0.7482     6.5448  1895.4566 H        582 DA      0.0000
   1427 H2''       1.5345     6.0111  1893.9236 H        582 DA      0.0000
   1428 H1'        3.2775     4.7717  1895.1412 H        582 DA      0.0000
   1429 H8        -0.4132     5.1924  1895.9139 H        582 DA      0.0000
   1430 H2         3.6548     0.2074  1895.9789 H        582 DA      0.0000
   1431 H61       -1.6491     0.5129  1896.3037 H        582 DA      0.0000
   1432 H62       -0.7434    -0.9831  1896.3471 H        582 DA      0.0000
   1433 P          4.5086     7.7429  1893.2325 P.3      581 DC      0.0000
   1434 OP1        5.4786     8.6145  1894.0127 O.co2    581 DC      0.0000
   1435 OP2        3.4950     8.5168  1892.5069 O.co2    581 DC      0.0000
   1436 O5'        5.1681     6.5952  1892.2566 O.3      581 DC      0.0000
   1437 C5'        6.0596     5.6235  1892.9256 C.3      581 DC      0.0000
   1438 C4'        5.8668     4.2760  1892.2816 C.3      581 DC      0.0000
   1439 O4'        4.8819     3.4715  1892.9187 O.3      581 DC      0.0000
   1440 C3'        5.4510     4.3729  1890.8038 C.3      581 DC      0.0000
   1441 O3'        5.9523     3.3179  1889.9925 O.3      581 DC      0.0000
   1442 C2'        3.9056     4.1995  1890.9694 C.3      581 DC      0.0000
   1443 C1'        4.0672     2.9163  1891.8650 C.3      581 DC      0.0000
   1444 N1         2.7447     2.4001  1892.1029 N.am     581 DC      0.0000
   1445 C2         2.6065     1.0585  1892.4200 C.2      581 DC      0.0000
   1446 O2         3.4718     0.1870  1892.5605 O.2      581 DC      0.0000
   1447 N3         1.3437     0.5730  1892.6183 N.2      581 DC      0.0000
   1448 C4         0.2358     1.3666  1892.5023 C.2      581 DC      0.0000
   1449 N4        -0.9831     0.8479  1892.7183 N.pl3    581 DC      0.0000
   1450 C5         0.3935     2.7411  1892.1726 C.2      581 DC      0.0000
   1451 C6         1.6385     3.1926  1891.9809 C.2      581 DC      0.0000
   1452 H5'        7.0970     5.9391  1892.8141 H        581 DC      0.0000
   1453 H5''       5.8069     5.5631  1893.9842 H        581 DC      0.0000
   1454 H4'        6.8165     3.7430  1892.3283 H        581 DC      0.0000
   1455 H3'        5.6985     5.3482  1890.3848 H        581 DC      0.0000
   1456 H2'        3.4287     5.0321  1891.4865 H        581 DC      0.0000
   1457 H2''       3.4170     3.9754  1890.0212 H        581 DC      0.0000
   1458 H1'        4.6479     2.1720  1891.3201 H        581 DC      0.0000
   1459 H5        -0.4602     3.3963  1892.0805 H        581 DC      0.0000
   1460 H6         1.7751     4.2310  1891.7177 H        581 DC      0.0000
   1461 H41       -1.0813    -0.1281  1892.9589 H        581 DC      0.0000
   1462 H42       -1.8023     1.4337  1892.6404 H        581 DC      0.0000
   1463 P         -4.6325    -8.8838  1926.5916 P.3      591 DG      0.0000
   1464 OP1       -5.8616    -9.7150  1926.5901 O.co2    591 DG      0.0000
   1465 OP2       -4.8399    -7.7880  1927.6473 O.co2    591 DG      0.0000
   1466 O5'       -3.2483    -9.6479  1926.7700 O.3      591 DG      0.0000
   1467 C5'       -2.2673    -9.9959  1925.7700 C.3      591 DG      0.0000
   1468 C4'       -0.9079    -9.5522  1926.2688 C.3      591 DG      0.0000
   1469 O4'       -0.5903    -8.2427  1925.8497 O.3      591 DG      0.0000
   1470 C3'       -0.6492    -9.6036  1927.7610 C.3      591 DG      0.0000
   1471 O3'        0.5425   -10.3743  1928.0730 O.3      591 DG      0.0000
   1472 C2'       -0.5513    -8.1498  1928.1829 C.3      591 DG      0.0000
   1473 C1'       -0.0958    -7.4465  1926.9273 C.3      591 DG      0.0000
   1474 N9        -0.6251    -6.0710  1926.8982 N.ar     591 DG      0.0000
   1475 C8        -1.9050    -5.6240  1927.1271 C.ar     591 DG      0.0000
   1476 N7        -2.0422    -4.3203  1927.0374 N.ar     591 DG      0.0000
   1477 C5        -0.7620    -3.8737  1926.7204 C.ar     591 DG      0.0000
   1478 C6        -0.2448    -2.5742  1926.4945 C.2      591 DG      0.0000
   1479 O6        -0.8463    -1.5000  1926.5157 O.2      591 DG      0.0000
   1480 N1         1.0929    -2.5207  1926.2129 N.am     591 DG      0.0000
   1481 C2         1.8444    -3.5731  1926.1523 C.2      591 DG      0.0000
   1482 N2         3.0427    -3.2490  1925.8555 N.pl3    591 DG      0.0000
   1483 N3         1.4293    -4.8922  1926.3610 N.2      591 DG      0.0000
   1484 C4         0.1173    -4.9367  1926.6336 C.ar     591 DG      0.0000
   1485 H5'       -2.2684   -11.0743  1925.6113 H        591 DG      0.0000
   1486 H5''      -2.4996    -9.4867  1924.8347 H        591 DG      0.0000
   1487 H4'       -0.1761   -10.2129  1925.8041 H        591 DG      0.0000
   1488 H3'       -1.5069   -10.0600  1928.2550 H        591 DG      0.0000
   1489 H2'       -1.5206    -7.7735  1928.5099 H        591 DG      0.0000
   1490 H2''       0.1889    -8.0325  1928.9744 H        591 DG      0.0000
   1491 H1'        0.9935    -7.4214  1926.8953 H        591 DG      0.0000
   1492 H8        -2.7256    -6.2864  1927.3602 H        591 DG      0.0000
   1493 H1         1.5137    -1.6181  1926.0446 H        591 DG      0.0000
   1494 H21        3.2824    -2.2786  1925.7112 H        591 DG      0.0000
   1495 H22        3.7513    -3.9630  1925.7651 H        591 DG      0.0000
   1496 P          1.2146   -10.3646  1929.5016 P.3      592 DT      0.0000
   1497 OP1        1.7154   -11.6904  1930.0132 O.co2    592 DT      0.0000
   1498 OP2        0.0304   -10.0128  1930.4202 O.co2    592 DT      0.0000
   1499 O5'        2.2422    -9.2044  1929.5301 O.3      592 DT      0.0000
   1500 C5'        3.6748    -9.4082  1929.3862 C.3      592 DT      0.0000
   1501 C4'        4.2662    -8.0153  1929.4437 C.3      592 DT      0.0000
   1502 O4'        3.3077    -7.0174  1929.1685 O.3      592 DT      0.0000
   1503 C3'        4.8821    -7.6019  1930.7564 C.3      592 DT      0.0000
   1504 O3'        6.2929    -7.4181  1930.5682 O.3      592 DT      0.0000
   1505 C2'        4.1926    -6.2954  1931.1486 C.3      592 DT      0.0000
   1506 C1'        3.7685    -5.7853  1929.7959 C.3      592 DT      0.0000
   1507 N1         2.6175    -4.8874  1929.8925 N.am     592 DT      0.0000
   1508 C2         2.8416    -3.5519  1929.6946 C.2      592 DT      0.0000
   1509 O2         3.9586    -3.0984  1929.4564 O.2      592 DT      0.0000
   1510 N3         1.7581    -2.7192  1929.7756 N.am     592 DT      0.0000
   1511 C4         0.5069    -3.1639  1930.0315 C.2      592 DT      0.0000
   1512 O4        -0.3878    -2.2795  1930.0768 O.2      592 DT      0.0000
   1513 C5         0.2912    -4.5653  1930.2312 C.2      592 DT      0.0000
   1514 C7        -1.0764    -5.0979  1930.5111 C.3      592 DT      0.0000
   1515 C6         1.3568    -5.3723  1930.1498 C.2      592 DT      0.0000
   1516 H5'        4.0595   -10.0234  1930.1996 H        592 DT      0.0000
   1517 H5''       3.8953    -9.8725  1928.4250 H        592 DT      0.0000
   1518 H4'        5.0404    -7.9516  1928.6791 H        592 DT      0.0000
   1519 H3'        4.7003    -8.3647  1931.5135 H        592 DT      0.0000
   1520 H2'        3.3349    -6.4732  1931.7974 H        592 DT      0.0000
   1521 H2''       4.8984    -5.6100  1931.6178 H        592 DT      0.0000
   1522 H1'        4.5967    -5.3328  1929.2505 H        592 DT      0.0000
   1523 H3         1.8995    -1.7287  1929.6382 H        592 DT      0.0000
   1524 H6         1.2220    -6.4347  1930.2901 H        592 DT      0.0000
   1525 H71       -1.4844    -5.5469  1929.6056 H        592 DT      0.0000
   1526 H72       -1.7238    -4.2834  1930.8359 H        592 DT      0.0000
   1527 H73       -1.0191    -5.8517  1931.2964 H        592 DT      0.0000
   1528 P          7.1739    -7.8994  1931.8481 P.3      593 DG      0.0000
   1529 OP1        8.3898    -8.4747  1931.1331 O.co2    593 DG      0.0000
   1530 OP2        6.4125    -8.8795  1932.6017 O.co2    593 DG      0.0000
   1531 O5'        7.4070    -6.4032  1932.4577 O.3      593 DG      0.0000
   1532 C5'        7.7982    -5.4862  1931.3671 C.3      593 DG      0.0000
   1533 C4'        7.6783    -4.0840  1931.8871 C.3      593 DG      0.0000
   1534 O4'        6.4390    -3.4526  1931.7065 O.3      593 DG      0.0000
   1535 C3'        8.0140    -3.9812  1933.3951 C.3      593 DG      0.0000
   1536 O3'        9.0444    -2.9760  1933.5540 O.3      593 DG      0.0000
   1537 C2'        6.6802    -3.6869  1934.0477 C.3      593 DG      0.0000
   1538 C1'        5.9779    -2.8743  1932.9662 C.3      593 DG      0.0000
   1539 N9         4.5209    -2.9059  1933.1357 N.ar     593 DG      0.0000
   1540 C8         3.7215    -3.9634  1933.4719 C.ar     593 DG      0.0000
   1541 N7         2.4411    -3.6771  1933.5576 N.ar     593 DG      0.0000
   1542 C5         2.4013    -2.3243  1933.2276 C.ar     593 DG      0.0000
   1543 C6         1.3047    -1.4204  1933.1333 C.2      593 DG      0.0000
   1544 O6         0.1018    -1.6525  1933.3256 O.2      593 DG      0.0000
   1545 N1         1.6562    -0.1328  1932.7982 N.am     593 DG      0.0000
   1546 C2         2.9506     0.2257  1932.5745 C.2      593 DG      0.0000
   1547 N2         3.1059     1.5198  1932.2656 N.pl3    593 DG      0.0000
   1548 N3         4.0072    -0.5808  1932.6455 N.2      593 DG      0.0000
   1549 C4         3.6659    -1.8391  1932.9721 C.ar     593 DG      0.0000
   1550 H5'        8.8271    -5.6842  1931.0666 H        593 DG      0.0000
   1551 H5''       7.1325    -5.6216  1930.5147 H        593 DG      0.0000
   1552 H4'        8.4187    -3.4853  1931.3565 H        593 DG      0.0000
   1553 H3'        8.3871    -4.9419  1933.7499 H        593 DG      0.0000
   1554 H2'        6.1363    -4.6047  1934.2707 H        593 DG      0.0000
   1555 H2''       6.8160    -3.0908  1934.9501 H        593 DG      0.0000
   1556 H1'        6.3177    -1.8403  1933.0251 H        593 DG      0.0000
   1557 H8         4.1107    -4.9546  1933.6525 H        593 DG      0.0000
   1558 H1         0.9327     0.5671  1932.7159 H        593 DG      0.0000
   1559 H21        2.3005     2.1272  1932.2154 H        593 DG      0.0000
   1560 H22        4.0285     1.8882  1932.0830 H        593 DG      0.0000
   1561 P          9.7049    -2.6936  1934.9424 P.3      594 DA      0.0000
   1562 OP1       10.9042    -3.5113  1935.2978 O.co2    594 DA      0.0000
   1563 OP2        8.5109    -3.1893  1935.8381 O.co2    594 DA      0.0000
   1564 O5'        9.7446    -1.1280  1935.1915 O.3      594 DA      0.0000
   1565 C5'        9.7068    -0.1284  1934.1625 C.3      594 DA      0.0000
   1566 C4'        8.6896     0.8969  1934.6368 C.3      594 DA      0.0000
   1567 O4'        7.3828     0.3710  1934.5464 O.3      594 DA      0.0000
   1568 C3'        8.8635     1.4114  1936.0659 C.3      594 DA      0.0000
   1569 O3'        8.7655     2.8496  1936.1181 O.3      594 DA      0.0000
   1570 C2'        7.7176     0.7057  1936.8013 C.3      594 DA      0.0000
   1571 C1'        6.6476     0.7939  1935.7237 C.3      594 DA      0.0000
   1572 N9         5.5039    -0.0949  1935.9521 N.ar     594 DA      0.0000
   1573 C8         5.4691    -1.4434  1936.1679 C.ar     594 DA      0.0000
   1574 N7         4.2575    -1.9255  1936.3328 N.ar     594 DA      0.0000
   1575 C5         3.4364    -0.8166  1936.1926 C.ar     594 DA      0.0000
   1576 C6         2.0318    -0.6803  1936.2406 C.ar     594 DA      0.0000
   1577 N6         1.1827    -1.6870  1936.4604 N.pl3    594 DA      0.0000
   1578 N1         1.5629     0.5888  1936.0508 N.ar     594 DA      0.0000
   1579 C2         2.4065     1.6241  1935.8330 C.ar     594 DA      0.0000
   1580 N3         3.7366     1.5709  1935.7748 N.ar     594 DA      0.0000
   1581 C4         4.1805     0.3145  1935.9616 C.ar     594 DA      0.0000
   1582 H5'        9.3932    -0.5672  1933.2153 H        594 DA      0.0000
   1583 H5''      10.6867     0.3369  1934.0547 H        594 DA      0.0000
   1584 H4'        8.7479     1.7549  1933.9670 H        594 DA      0.0000
   1585 H3'        9.8233     1.0860  1936.4673 H        594 DA      0.0000
   1586 H2'        7.9651    -0.3270  1937.0468 H        594 DA      0.0000
   1587 H2''       7.4233     1.2605  1937.6922 H        594 DA      0.0000
   1588 H1'        6.3095     1.8238  1935.6092 H        594 DA      0.0000
   1589 H8         6.3568    -2.0577  1936.2000 H        594 DA      0.0000
   1590 H2         1.9545     2.5948  1935.6917 H        594 DA      0.0000
   1591 H61        1.4087    -2.6666  1936.3630 H        594 DA      0.0000
   1592 H62        0.1997    -1.5308  1936.2889 H        594 DA      0.0000
   1593 P          9.5391     3.7424  1937.2596 P.3      595 DA      0.0000
   1594 OP1       10.5176     4.6768  1936.5925 O.co2    595 DA      0.0000
   1595 OP2       10.1429     2.6808  1938.0905 O.co2    595 DA      0.0000
   1596 O5'        8.3798     4.7012  1937.7904 O.3      595 DA      0.0000
   1597 C5'        7.6958     5.6435  1936.9661 C.3      595 DA      0.0000
   1598 C4'        6.2769     5.7851  1937.4884 C.3      595 DA      0.0000
   1599 O4'        5.6207     4.5491  1937.5166 O.3      595 DA      0.0000
   1600 C3'        6.0945     6.4208  1938.8557 C.3      595 DA      0.0000
   1601 O3'        5.3697     7.6481  1938.7779 O.3      595 DA      0.0000
   1602 C2'        5.4231     5.3187  1939.6844 C.3      595 DA      0.0000
   1603 C1'        4.7508     4.4534  1938.6906 C.3      595 DA      0.0000
   1604 N9         4.5629     3.0160  1938.9587 N.ar     595 DA      0.0000
   1605 C8         5.4915     2.0101  1939.0739 C.ar     595 DA      0.0000
   1606 N7         4.9724     0.8171  1939.2432 N.ar     595 DA      0.0000
   1607 C5         3.6003     1.0443  1939.2062 C.ar     595 DA      0.0000
   1608 C6         2.4898     0.1610  1939.3266 C.ar     595 DA      0.0000
   1609 N6         2.5657    -1.1500  1939.5183 N.pl3    595 DA      0.0000
   1610 N1         1.2527     0.7472  1939.2284 N.ar     595 DA      0.0000
   1611 C2         1.1347     2.0936  1939.0394 C.ar     595 DA      0.0000
   1612 N3         2.1253     2.9717  1938.9315 N.ar     595 DA      0.0000
   1613 C4         3.3339     2.3815  1939.0234 C.ar     595 DA      0.0000
   1614 H5'        7.6764     5.2874  1935.9360 H        595 DA      0.0000
   1615 H5''       8.2022     6.6077  1937.0120 H        595 DA      0.0000
   1616 H4'        5.7397     6.4108  1936.7757 H        595 DA      0.0000
   1617 H3'        7.0782     6.6239  1939.2789 H        595 DA      0.0000
   1618 H2'        6.1674     4.7528  1940.2447 H        595 DA      0.0000
   1619 H2''       4.6895     5.7523  1940.3640 H        595 DA      0.0000
   1620 H1'        3.7835     4.8914  1938.4446 H        595 DA      0.0000
   1621 H8         6.5561     2.1859  1939.0290 H        595 DA      0.0000
   1622 H2         0.1309     2.4860  1938.9702 H        595 DA      0.0000
   1623 H61        3.4096    -1.5990  1939.8444 H        595 DA      0.0000
   1624 H62        1.7518    -1.7181  1939.3315 H        595 DA      0.0000
   1625 P          5.5987     8.9433  1939.7341 P.3      596 DT      0.0000
   1626 OP1        5.5546    10.2420  1938.9368 O.co2    596 DT      0.0000
   1627 OP2        6.7791     8.7710  1940.5547 O.co2    596 DT      0.0000
   1628 O5'        4.1709     9.0084  1940.5478 O.3      596 DT      0.0000
   1629 C5'        3.0584     8.7022  1939.6027 C.3      596 DT      0.0000
   1630 C4'        2.1354     7.8075  1940.3904 C.3      596 DT      0.0000
   1631 O4'        2.6376     6.5041  1940.5824 O.3      596 DT      0.0000
   1632 C3'        1.8686     8.3491  1941.8070 C.3      596 DT      0.0000
   1633 O3'        0.6361     9.0453  1941.8087 O.3      596 DT      0.0000
   1634 C2'        1.9098     7.1146  1942.7043 C.3      596 DT      0.0000
   1635 C1'        1.8391     5.9990  1941.7397 C.3      596 DT      0.0000
   1636 N1         2.3786     4.6920  1942.0794 N.am     596 DT      0.0000
   1637 C2         1.4652     3.6515  1942.2173 C.2      596 DT      0.0000
   1638 O2         0.2655     3.8790  1942.1293 O.2      596 DT      0.0000
   1639 N3         1.9455     2.4023  1942.4713 N.am     596 DT      0.0000
   1640 C4         3.2792     2.1351  1942.5915 C.2      596 DT      0.0000
   1641 O4         3.6479     0.9443  1942.8467 O.2      596 DT      0.0000
   1642 C5         4.2026     3.2185  1942.4199 C.2      596 DT      0.0000
   1643 C7         5.6836     2.9740  1942.5074 C.3      596 DT      0.0000
   1644 C6         3.7238     4.4482  1942.1641 C.2      596 DT      0.0000
   1645 H5'        2.5458     9.6157  1939.3011 H        596 DT      0.0000
   1646 H5''       3.4396     8.1758  1938.7277 H        596 DT      0.0000
   1647 H4'        1.1849     7.7382  1939.8613 H        596 DT      0.0000
   1648 H3'        2.6703     9.0307  1942.0913 H        596 DT      0.0000
   1649 H2'        2.8360     7.0782  1943.2777 H        596 DT      0.0000
   1650 H2''       1.0474     7.0982  1943.3707 H        596 DT      0.0000
   1651 H1'        0.8034     5.8772  1941.4223 H        596 DT      0.0000
   1652 H3         1.2881     1.6426  1942.5750 H        596 DT      0.0000
   1653 H6         4.4168     5.2642  1942.0220 H        596 DT      0.0000
   1654 H71        5.8665     1.9208  1942.7205 H        596 DT      0.0000
   1655 H72        6.1520     3.2394  1941.5596 H        596 DT      0.0000
   1656 H73        6.1062     3.5848  1943.3052 H        596 DT      0.0000
   1657 P          0.0227     9.9446  1942.9153 P.3      597 DT      0.0000
   1658 OP1       -1.0111    10.9250  1942.3032 O.co2    597 DT      0.0000
   1659 OP2        1.1595    10.6643  1943.5453 O.co2    597 DT      0.0000
   1660 O5'       -0.8679     8.9445  1943.7976 O.3      597 DT      0.0000
   1661 C5'       -2.0450     8.4770  1943.0859 C.3      597 DT      0.0000
   1662 C4'       -2.5571     7.2528  1943.7620 C.3      597 DT      0.0000
   1663 O4'       -1.6468     6.1604  1943.7387 O.3      597 DT      0.0000
   1664 C3'       -2.9614     7.4605  1945.2286 C.3      597 DT      0.0000
   1665 O3'       -4.1918     6.8133  1945.4927 O.3      597 DT      0.0000
   1666 C2'       -1.8154     6.7269  1945.9650 C.3      597 DT      0.0000
   1667 C1'       -1.7440     5.5127  1945.0614 C.3      597 DT      0.0000
   1668 N1        -0.5736     4.7080  1945.3591 N.am     597 DT      0.0000
   1669 C2        -0.7150     3.3308  1945.4139 C.2      597 DT      0.0000
   1670 O2        -1.8281     2.8379  1945.2255 O.2      597 DT      0.0000
   1671 N3         0.3935     2.5774  1945.6798 N.am     597 DT      0.0000
   1672 C4         1.6176     3.1355  1945.8869 C.2      597 DT      0.0000
   1673 O4         2.6015     2.3737  1946.1102 O.2      597 DT      0.0000
   1674 C5         1.7521     4.5531  1945.8218 C.2      597 DT      0.0000
   1675 C7         3.0686     5.2426  1946.0317 C.3      597 DT      0.0000
   1676 C6         0.6531     5.2778  1945.5607 C.2      597 DT      0.0000
   1677 H5'       -2.8125     9.2510  1943.0983 H        597 DT      0.0000
   1678 H5''      -1.7797     8.2416  1942.0551 H        597 DT      0.0000
   1679 H4'       -3.4510     6.9381  1943.2235 H        597 DT      0.0000
   1680 H3'       -2.9976     8.5178  1945.4911 H        597 DT      0.0000
   1681 H2'       -0.8881     7.2997  1945.9637 H        597 DT      0.0000
   1682 H2''      -2.1085     6.4502  1946.9777 H        597 DT      0.0000
   1683 H1'       -2.6542     4.9179  1945.1370 H        597 DT      0.0000
   1684 H3         0.3015     1.5726  1945.7243 H        597 DT      0.0000
   1685 H6         0.7409     6.3529  1945.5076 H        597 DT      0.0000
   1686 H71        3.8410     4.4996  1946.2306 H        597 DT      0.0000
   1687 H72        3.3297     5.8069  1945.1364 H        597 DT      0.0000
   1688 H73        2.9915     5.9225  1946.8801 H        597 DT      0.0000
   1689 P         -5.5802     7.2201  1946.1006 P.3      598 DC      0.0000
   1690 OP1       -6.6554     7.2818  1945.0327 O.co2    598 DC      0.0000
   1691 OP2       -5.3319     8.4738  1946.8356 O.co2    598 DC      0.0000
   1692 O5'       -5.8292     5.8360  1946.9267 O.3      598 DC      0.0000
   1693 C5'       -5.6518     4.7877  1945.9044 C.3      598 DC      0.0000
   1694 C4'       -5.7945     3.4644  1946.6009 C.3      598 DC      0.0000
   1695 O4'       -4.5666     2.8525  1946.8478 O.3      598 DC      0.0000
   1696 C3'       -6.6040     3.4968  1947.8924 C.3      598 DC      0.0000
   1697 O3'       -7.6957     2.5899  1947.8127 O.3      598 DC      0.0000
   1698 C2'       -5.5207     3.2359  1948.9411 C.3      598 DC      0.0000
   1699 C1'       -4.5142     2.4084  1948.2447 C.3      598 DC      0.0000
   1700 N1        -3.1064     2.6488  1948.5768 N.am     598 DC      0.0000
   1701 C2        -2.3393     1.5144  1948.8326 C.2      598 DC      0.0000
   1702 O2        -2.8417     0.3864  1948.8371 O.2      598 DC      0.0000
   1703 N3        -1.0068     1.7004  1949.1065 N.2      598 DC      0.0000
   1704 C4        -0.4444     2.9429  1949.0965 C.2      598 DC      0.0000
   1705 N4         0.8527     3.0196  1949.3734 N.pl3    598 DC      0.0000
   1706 C5        -1.2311     4.0824  1948.8185 C.2      598 DC      0.0000
   1707 C6        -2.5387     3.8832  1948.5537 C.2      598 DC      0.0000
   1708 H5'       -6.4132     4.8871  1945.1308 H        598 DC      0.0000
   1709 H5''      -4.6597     4.8675  1945.4602 H        598 DC      0.0000
   1710 H4'       -6.3332     2.8107  1945.9149 H        598 DC      0.0000
   1711 H3'       -6.9951     4.5041  1948.0357 H        598 DC      0.0000
   1712 H2'       -5.0795     4.1736  1949.2790 H        598 DC      0.0000
   1713 H2''      -5.9383     2.6894  1949.7867 H        598 DC      0.0000
   1714 H1'       -4.7578     1.3490  1948.3257 H        598 DC      0.0000
   1715 H5        -0.8029     5.0738  1948.8179 H        598 DC      0.0000
   1716 H6        -3.1569     4.7359  1948.3147 H        598 DC      0.0000
   1717 H41        1.3770     2.1798  1949.5726 H        598 DC      0.0000
   1718 H42        1.3143     3.9179  1949.3847 H        598 DC      0.0000
   1719 P         -9.0098     2.5814  1948.7647 P.3      599 DA      0.0000
   1720 OP1      -10.1281     1.9336  1947.9710 O.co2    599 DA      0.0000
   1721 OP2       -9.3261     3.9823  1949.1103 O.co2    599 DA      0.0000
   1722 O5'       -8.5542     1.6768  1950.0617 O.3      599 DA      0.0000
   1723 C5'       -7.9997     0.3583  1949.7665 C.3      599 DA      0.0000
   1724 C4'       -7.5390    -0.3071  1951.0218 C.3      599 DA      0.0000
   1725 O4'       -6.1306    -0.2377  1951.2639 O.3      599 DA      0.0000
   1726 C3'       -8.1208     0.2611  1952.3270 C.3      599 DA      0.0000
   1727 O3'       -7.9707    -0.7187  1953.3570 O.3      599 DA      0.0000
   1728 C2'       -7.1488     1.4384  1952.5416 C.3      599 DA      0.0000
   1729 C1'       -5.8574     0.6341  1952.3583 C.3      599 DA      0.0000
   1730 N9        -4.7327     1.5495  1952.2640 N.ar     599 DA      0.0000
   1731 C8        -4.7004     2.9115  1952.1482 C.ar     599 DA      0.0000
   1732 N7        -3.4905     3.4414  1952.1296 N.ar     599 DA      0.0000
   1733 C5        -2.6594     2.3353  1952.2371 C.ar     599 DA      0.0000
   1734 C6        -1.2488     2.2078  1952.2717 C.ar     599 DA      0.0000
   1735 N6        -0.4030     3.2188  1952.1864 N.pl3    599 DA      0.0000
   1736 N1        -0.7628     0.9386  1952.4042 N.ar     599 DA      0.0000
   1737 C2        -1.6039    -0.1393  1952.4844 C.ar     599 DA      0.0000
   1738 N3        -2.9339    -0.1000  1952.4546 N.ar     599 DA      0.0000
   1739 C4        -3.3988     1.1675  1952.3316 C.ar     599 DA      0.0000
   1740 H5'       -8.7667    -0.2563  1949.2954 H        599 DA      0.0000
   1741 H5''      -7.1557     0.4665  1949.0852 H        599 DA      0.0000
   1742 H4'       -7.8162    -1.3596  1950.9629 H        599 DA      0.0000
   1743 H3'       -9.1537     0.5900  1952.2134 H        599 DA      0.0000
   1744 H2'       -7.2654     2.2199  1951.7908 H        599 DA      0.0000
   1745 H2''      -7.2274     1.8411  1953.5515 H        599 DA      0.0000
   1746 H1'       -5.7159     0.0204  1953.2480 H        599 DA      0.0000
   1747 H8        -5.5970     3.5095  1952.0772 H        599 DA      0.0000
   1748 H2        -1.1449    -1.1121  1952.5809 H        599 DA      0.0000
   1749 H61        0.5849     3.3266  1952.3665 H        599 DA      0.0000
   1750 H62       -0.8411     4.0726  1951.8717 H        599 DA      0.0000
   1751 P         -8.9902    -1.9440  1953.4974 P.3      600 DC      0.0000
   1752 OP1       -9.7651    -2.2092  1952.2523 O.co2    600 DC      0.0000
   1753 OP2       -9.8589    -1.5044  1954.6403 O.co2    600 DC      0.0000
   1754 O5'       -8.0377    -3.1798  1953.7806 O.3      600 DC      0.0000
   1755 C5'       -7.3584    -3.8771  1952.6929 C.3      600 DC      0.0000
   1756 C4'       -6.0985    -4.3924  1953.3978 C.3      600 DC      0.0000
   1757 O4'       -5.3036    -3.2719  1953.7098 O.3      600 DC      0.0000
   1758 C3'       -6.3814    -5.1232  1954.7077 C.3      600 DC      0.0000
   1759 O3'       -5.7492    -6.4215  1954.7756 O.3      600 DC      0.0000
   1760 C2'       -5.8889    -4.1505  1955.7899 C.3      600 DC      0.0000
   1761 C1'       -4.7773    -3.4560  1955.1138 C.3      600 DC      0.0000
   1762 N1        -4.4055    -2.0883  1955.4666 N.am     600 DC      0.0000
   1763 C2        -3.0380    -1.8208  1955.4397 C.2      600 DC      0.0000
   1764 O2        -2.1983    -2.6878  1955.2328 O.2      600 DC      0.0000
   1765 N3        -2.6461    -0.5432  1955.6928 N.2      600 DC      0.0000
   1766 C4        -3.5305     0.4565  1955.9262 C.2      600 DC      0.0000
   1767 N4        -3.0251     1.6667  1956.1571 N.pl3    600 DC      0.0000
   1768 C5        -4.9241     0.1737  1955.9327 C.2      600 DC      0.0000
   1769 C6        -5.3033    -1.0892  1955.6833 C.2      600 DC      0.0000
   1770 H5'       -7.9629    -4.6984  1952.3080 H        600 DC      0.0000
   1771 H5''      -7.0968    -3.1833  1951.8938 H        600 DC      0.0000
   1772 H4'       -5.5496    -5.0513  1952.7251 H        600 DC      0.0000
   1773 H3'       -7.4587    -5.2508  1954.8136 H        600 DC      0.0000
   1774 H2'       -6.6739    -3.4508  1956.0769 H        600 DC      0.0000
   1775 H2''      -5.5262    -4.6974  1956.6602 H        600 DC      0.0000
   1776 H1'       -3.8923    -4.0922  1955.1005 H        600 DC      0.0000
   1777 H5        -5.6511     0.9474  1956.1312 H        600 DC      0.0000
   1778 H6        -6.3578    -1.3206  1955.6536 H        600 DC      0.0000
   1779 H41       -2.0249     1.8069  1956.1461 H        600 DC      0.0000
   1780 H42       -3.6420     2.4445  1956.3432 H        600 DC      0.0000
   1781 P          6.5988     5.3388  1957.7351 P.3      600 DG      0.0000
   1782 OP1        7.7099     6.3238  1957.9139 O.co2    600 DG      0.0000
   1783 OP2        5.6102     5.7452  1956.6503 O.co2    600 DG      0.0000
   1784 O5'        7.2320     3.8336  1957.5279 O.3      600 DG      0.0000
   1785 C5'        7.1412     2.8636  1958.6237 C.3      600 DG      0.0000
   1786 C4'        6.8738     1.5006  1957.9894 C.3      600 DG      0.0000
   1787 O4'        5.5028     1.2259  1957.8936 O.3      600 DG      0.0000
   1788 C3'        7.4438     1.3356  1956.5831 C.3      600 DG      0.0000
   1789 O3'        8.0065     0.0302  1956.3161 O.3      600 DG      0.0000
   1790 C2'        6.2299     1.6218  1955.6808 C.3      600 DG      0.0000
   1791 C1'        5.1117     1.0050  1956.5046 C.3      600 DG      0.0000
   1792 N9         3.8246     1.6667  1956.2313 N.ar     600 DG      0.0000
   1793 C8         3.5817     3.0107  1956.0746 C.ar     600 DG      0.0000
   1794 N7         2.3268     3.3015  1955.8562 N.ar     600 DG      0.0000
   1795 C5         1.6930     2.0648  1955.8810 C.ar     600 DG      0.0000
   1796 C6         0.3271     1.7079  1955.7245 C.2      600 DG      0.0000
   1797 O6        -0.6218     2.4804  1955.5277 O.2      600 DG      0.0000
   1798 N1         0.0817     0.3597  1955.8115 N.am     600 DG      0.0000
   1799 C2         1.0621    -0.5500  1956.0321 C.2      600 DG      0.0000
   1800 N2         0.6739    -1.8207  1956.0955 N.pl3    600 DG      0.0000
   1801 N3         2.3611    -0.2676  1956.1899 N.2      600 DG      0.0000
   1802 C4         2.6011     1.0554  1956.1066 C.ar     600 DG      0.0000
   1803 H5'        8.0774     2.8400  1959.1815 H        600 DG      0.0000
   1804 H5''       6.3200     3.1308  1959.2886 H        600 DG      0.0000
   1805 H4'        7.3251     0.7397  1958.6261 H        600 DG      0.0000
   1806 H3'        8.2053     2.0966  1956.4126 H        600 DG      0.0000
   1807 H2'        6.0796     2.6919  1955.5381 H        600 DG      0.0000
   1808 H2''       6.3310     1.1132  1954.7220 H        600 DG      0.0000
   1809 H1'        5.0375    -0.0630  1956.2994 H        600 DG      0.0000
   1810 H8         4.3586     3.7591  1956.1274 H        600 DG      0.0000
   1811 H1        -0.8681     0.0325  1955.7067 H        600 DG      0.0000
   1812 H21       -0.3013    -2.0572  1955.9804 H        600 DG      0.0000
   1813 H22        1.3542    -2.5491  1956.2587 H        600 DG      0.0000
   1814 P          7.9278    -0.4606  1954.7926 P.3      599 DT      0.0000
   1815 OP1        9.0322    -1.4052  1954.4017 O.co2    599 DT      0.0000
   1816 OP2        8.0604     0.8405  1954.0921 O.co2    599 DT      0.0000
   1817 O5'        6.5076    -1.1908  1954.6617 O.3      599 DT      0.0000
   1818 C5'        6.4789    -2.6294  1954.9293 C.3      599 DT      0.0000
   1819 C4'        5.3163    -3.2336  1954.1723 C.3      599 DT      0.0000
   1820 O4'        4.1779    -2.3913  1954.1450 O.3      599 DT      0.0000
   1821 C3'        5.6434    -3.5334  1952.7176 C.3      599 DT      0.0000
   1822 O3'        5.0559    -4.7562  1952.2225 O.3      599 DT      0.0000
   1823 C2'        5.1073    -2.3177  1951.9947 C.3      599 DT      0.0000
   1824 C1'        3.8176    -2.1156  1952.7728 C.3      599 DT      0.0000
   1825 N1         3.4491    -0.6992  1952.6215 N.am     599 DT      0.0000
   1826 C2         2.0943    -0.4019  1952.7283 C.2      599 DT      0.0000
   1827 O2         1.2750    -1.2946  1952.9180 O.2      599 DT      0.0000
   1828 N3         1.7320     0.9106  1952.6081 N.am     599 DT      0.0000
   1829 C4         2.6491     1.8947  1952.3905 C.2      599 DT      0.0000
   1830 O4         2.2155     3.0902  1952.2930 O.2      599 DT      0.0000
   1831 C5         4.0292     1.5594  1952.2842 C.2      599 DT      0.0000
   1832 C7         5.0499     2.6371  1952.0552 C.3      599 DT      0.0000
   1833 C6         4.3774     0.2759  1952.4059 C.2      599 DT      0.0000
   1834 H5'        7.4116    -3.0843  1954.5956 H        599 DT      0.0000
   1835 H5''       6.3493    -2.8009  1955.9979 H        599 DT      0.0000
   1836 H4'        5.0390    -4.1680  1954.6602 H        599 DT      0.0000
   1837 H3'        6.7254    -3.5779  1952.5936 H        599 DT      0.0000
   1838 H2'        5.7762    -1.4619  1952.0863 H        599 DT      0.0000
   1839 H2''       4.9017    -2.5436  1950.9483 H        599 DT      0.0000
   1840 H1'        3.0265    -2.7783  1952.4222 H        599 DT      0.0000
   1841 H3         0.7557     1.1584  1952.6828 H        599 DT      0.0000
   1842 H6         5.4198     0.0036  1952.3318 H        599 DT      0.0000
   1843 H71        4.5498     3.6032  1951.9865 H        599 DT      0.0000
   1844 H72        5.7552     2.6516  1952.8861 H        599 DT      0.0000
   1845 H73        5.5859     2.4386  1951.1271 H        599 DT      0.0000
   1846 P          6.2577    -5.5954  1951.4441 P.3      598 DG      0.0000
   1847 OP1        6.9421    -6.5977  1952.3153 O.co2    598 DG      0.0000
   1848 OP2        7.1016    -4.4437  1951.0385 O.co2    598 DG      0.0000
   1849 O5'        5.3977    -6.3997  1950.3633 O.3      598 DG      0.0000
   1850 C5'        4.6702    -7.5805  1950.7867 C.3      598 DG      0.0000
   1851 C4'        3.2348    -7.3348  1950.3390 C.3      598 DG      0.0000
   1852 O4'        2.8755    -5.9947  1950.6097 O.3      598 DG      0.0000
   1853 C3'        2.9870    -7.5843  1948.8513 C.3      598 DG      0.0000
   1854 O3'        1.9506    -8.5269  1948.6427 O.3      598 DG      0.0000
   1855 C2'        2.7393    -6.2017  1948.2746 C.3      598 DG      0.0000
   1856 C1'        2.2010    -5.4370  1949.4607 C.3      598 DG      0.0000
   1857 N9         2.4922    -4.0062  1949.3371 N.ar     598 DG      0.0000
   1858 C8         3.7052    -3.3981  1949.1783 C.ar     598 DG      0.0000
   1859 N7         3.6344    -2.0916  1949.1002 N.ar     598 DG      0.0000
   1860 C5         2.2767    -1.8178  1949.2377 C.ar     598 DG      0.0000
   1861 C6         1.5531    -0.5962  1949.2472 C.2      598 DG      0.0000
   1862 O6         2.0119     0.5372  1949.1481 O.2      598 DG      0.0000
   1863 N1         0.2026    -0.7368  1949.3962 N.am     598 DG      0.0000
   1864 C2        -0.3932    -1.9677  1949.5290 C.2      598 DG      0.0000
   1865 N2        -1.7196    -1.9611  1949.6647 N.pl3    598 DG      0.0000
   1866 N3         0.2274    -3.1518  1949.5333 N.2      598 DG      0.0000
   1867 C4         1.5649    -2.9966  1949.3826 C.ar     598 DG      0.0000
   1868 H5'        5.0742    -8.4725  1950.3080 H        598 DG      0.0000
   1869 H5''       4.7146    -7.6818  1951.8711 H        598 DG      0.0000
   1870 H4'        2.5785    -7.9898  1950.9120 H        598 DG      0.0000
   1871 H3'        3.9032    -7.9796  1948.4127 H        598 DG      0.0000
   1872 H2'        3.6648    -5.7575  1947.9082 H        598 DG      0.0000
   1873 H2''       1.9955    -6.2468  1947.4790 H        598 DG      0.0000
   1874 H1'        1.1257    -5.5925  1949.5477 H        598 DG      0.0000
   1875 H8         4.6359    -3.9432  1949.1222 H        598 DG      0.0000
   1876 H1        -0.3766     0.0906  1949.4090 H        598 DG      0.0000
   1877 H21       -2.2228    -1.0854  1949.6657 H        598 DG      0.0000
   1878 H22       -2.2211    -2.8318  1949.7665 H        598 DG      0.0000
   1879 P          0.6295    -8.5637  1947.7764 P.3      597 DA      0.0000
   1880 OP1       -0.4952    -9.2548  1948.5578 O.co2    597 DA      0.0000
   1881 OP2        0.9757    -9.3402  1946.5837 O.co2    597 DA      0.0000
   1882 O5'        0.1567    -7.0145  1947.6016 O.3      597 DA      0.0000
   1883 C5'       -0.6388    -6.5551  1948.7581 C.3      597 DA      0.0000
   1884 C4'       -2.0119    -6.2203  1948.2303 C.3      597 DA      0.0000
   1885 O4'       -2.1814    -4.8433  1948.0080 O.3      597 DA      0.0000
   1886 C3'       -2.3142    -6.8889  1946.8898 C.3      597 DA      0.0000
   1887 O3'       -3.6320    -7.3779  1946.8146 O.3      597 DA      0.0000
   1888 C2'       -1.8995    -5.8213  1945.8932 C.3      597 DA      0.0000
   1889 C1'       -1.9852    -4.5067  1946.6171 C.3      597 DA      0.0000
   1890 N9        -0.7855    -3.6825  1946.3916 N.ar     597 DA      0.0000
   1891 C8         0.5193    -4.0850  1946.2052 C.ar     597 DA      0.0000
   1892 N7         1.3667    -3.1011  1946.0093 N.ar     597 DA      0.0000
   1893 C5         0.5656    -1.9694  1946.0962 C.ar     597 DA      0.0000
   1894 C6         0.8754    -0.5934  1945.9905 C.ar     597 DA      0.0000
   1895 N6         2.0937    -0.1280  1945.7781 N.pl3    597 DA      0.0000
   1896 N1        -0.1725     0.2674  1946.1142 N.ar     597 DA      0.0000
   1897 C2        -1.4415    -0.1850  1946.3388 C.ar     597 DA      0.0000
   1898 N3        -1.7986    -1.4624  1946.4547 N.ar     597 DA      0.0000
   1899 C4        -0.7488    -2.3082  1946.3185 C.ar     597 DA      0.0000
   1900 H5'       -0.7057    -7.3450  1949.5062 H        597 DA      0.0000
   1901 H5''      -0.1816    -5.6671  1949.1948 H        597 DA      0.0000
   1902 H4'       -2.7539    -6.5490  1948.9580 H        597 DA      0.0000
   1903 H3'       -1.6359    -7.7346  1946.7767 H        597 DA      0.0000
   1904 H2'       -2.5731    -5.8241  1945.0364 H        597 DA      0.0000
   1905 H2''      -0.8760    -5.9982  1945.5627 H        597 DA      0.0000
   1906 H1'       -2.8593    -3.9630  1946.2589 H        597 DA      0.0000
   1907 H8         0.8197    -5.1223  1946.2191 H        597 DA      0.0000
   1908 H2        -2.2214     0.5564  1946.4300 H        597 DA      0.0000
   1909 H61        2.3637     0.7928  1946.0935 H        597 DA      0.0000
   1910 H62        2.7667    -0.7030  1945.2918 H        597 DA      0.0000
   1911 P         -4.6776    -7.3886  1945.6300 P.3      596 DA      0.0000
   1912 OP1       -6.0854    -7.8021  1946.1499 O.co2    596 DA      0.0000
   1913 OP2       -4.1750    -8.4442  1944.6963 O.co2    596 DA      0.0000
   1914 O5'       -4.8347    -5.9038  1945.1273 O.3      596 DA      0.0000
   1915 C5'       -5.9441    -5.1022  1945.5832 C.3      596 DA      0.0000
   1916 C4'       -5.8411    -3.7657  1944.8812 C.3      596 DA      0.0000
   1917 O4'       -4.5352    -3.2780  1944.7605 O.3      596 DA      0.0000
   1918 C3'       -6.4359    -3.7693  1943.4737 C.3      596 DA      0.0000
   1919 O3'       -7.5976    -2.9188  1943.4423 O.3      596 DA      0.0000
   1920 C2'       -5.2505    -3.4147  1942.5742 C.3      596 DA      0.0000
   1921 C1'       -4.3707    -2.5986  1943.4719 C.3      596 DA      0.0000
   1922 N9        -2.9427    -2.6131  1943.1723 N.ar     596 DA      0.0000
   1923 C8        -2.1022    -3.6896  1942.9776 C.ar     596 DA      0.0000
   1924 N7        -0.8484    -3.3531  1942.7722 N.ar     596 DA      0.0000
   1925 C5        -0.8522    -1.9738  1942.8467 C.ar     596 DA      0.0000
   1926 C6         0.1807    -1.0189  1942.7132 C.ar     596 DA      0.0000
   1927 N6         1.4501    -1.3304  1942.4700 N.pl3    596 DA      0.0000
   1928 N1        -0.2092     0.2879  1942.8620 N.ar     596 DA      0.0000
   1929 C2        -1.4864     0.6333  1943.1146 C.ar     596 DA      0.0000
   1930 N3        -2.5124    -0.2118  1943.2534 N.ar     596 DA      0.0000
   1931 C4        -2.1252    -1.4984  1943.1062 C.ar     596 DA      0.0000
   1932 H5'       -6.8862    -5.5874  1945.3280 H        596 DA      0.0000
   1933 H5''      -5.8804    -4.9603  1946.6620 H        596 DA      0.0000
   1934 H4'       -6.4052    -3.0435  1945.4714 H        596 DA      0.0000
   1935 H3'       -6.7507    -4.7860  1943.2387 H        596 DA      0.0000
   1936 H2'       -4.7355    -4.3133  1942.2343 H        596 DA      0.0000
   1937 H2''      -5.5824    -2.8205  1941.7228 H        596 DA      0.0000
   1938 H1'       -4.7361    -1.5735  1943.5330 H        596 DA      0.0000
   1939 H8        -2.4430    -4.7143  1942.9926 H        596 DA      0.0000
   1940 H2        -1.7004     1.6872  1943.2136 H        596 DA      0.0000
   1941 H61        2.1275    -0.6412  1942.7640 H        596 DA      0.0000
   1942 H62        1.7184    -2.1953  1942.0227 H        596 DA      0.0000
   1943 P         -8.3999    -2.7453  1942.0573 P.3      595 DT      0.0000
   1944 OP1       -9.7625    -2.1262  1942.1154 O.co2    595 DT      0.0000
   1945 OP2       -8.3552    -4.1489  1941.5447 O.co2    595 DT      0.0000
   1946 O5'       -7.4013    -1.6112  1941.3542 O.3      595 DT      0.0000
   1947 C5'       -7.0093    -0.6354  1942.3665 C.3      595 DT      0.0000
   1948 C4'       -6.5971     0.6293  1941.6835 C.3      595 DT      0.0000
   1949 O4'       -5.2171     0.7422  1941.5031 O.3      595 DT      0.0000
   1950 C3'       -7.2418     0.8402  1940.3223 C.3      595 DT      0.0000
   1951 O3'       -7.5579     2.2120  1940.0550 O.3      595 DT      0.0000
   1952 C2'       -6.1504     0.2362  1939.4289 C.3      595 DT      0.0000
   1953 C1'       -4.8927     0.7839  1940.0689 C.3      595 DT      0.0000
   1954 N1        -3.7423    -0.1103  1939.8390 N.am     595 DT      0.0000
   1955 C2        -2.4935     0.4732  1939.7174 C.2      595 DT      0.0000
   1956 O2        -2.3559     1.6970  1939.7541 O.2      595 DT      0.0000
   1957 N3        -1.4135    -0.3504  1939.5500 N.am     595 DT      0.0000
   1958 C4        -1.5416    -1.7036  1939.5014 C.2      595 DT      0.0000
   1959 O4        -0.4909    -2.3873  1939.3159 O.2      595 DT      0.0000
   1960 C5        -2.8321    -2.2844  1939.6498 C.2      595 DT      0.0000
   1961 C7        -3.0125    -3.7829  1939.5977 C.3      595 DT      0.0000
   1962 C6        -3.8759    -1.4668  1939.8228 C.2      595 DT      0.0000
   1963 H5'       -7.8520    -0.4361  1943.0286 H        595 DT      0.0000
   1964 H5''      -6.1734    -1.0266  1942.9465 H        595 DT      0.0000
   1965 H4'       -6.9087     1.4571  1942.3206 H        595 DT      0.0000
   1966 H3'       -8.1467     0.2370  1940.2503 H        595 DT      0.0000
   1967 H2'       -6.1697    -0.8532  1939.4595 H        595 DT      0.0000
   1968 H2''      -6.2489     0.5947  1938.4043 H        595 DT      0.0000
   1969 H1'       -4.6831     1.8001  1939.7350 H        595 DT      0.0000
   1970 H3        -0.4944     0.0586  1939.4598 H        595 DT      0.0000
   1971 H6        -4.8584    -1.8958  1939.9542 H        595 DT      0.0000
   1972 H71       -3.3131    -4.0785  1938.5925 H        595 DT      0.0000
   1973 H72       -3.7827    -4.0808  1940.3093 H        595 DT      0.0000
   1974 H73       -2.0724    -4.2712  1939.8542 H        595 DT      0.0000
   1975 P         -8.1564     2.5225  1938.5651 P.3      594 DT      0.0000
   1976 OP1       -9.6055     2.9899  1938.7130 O.co2    594 DT      0.0000
   1977 OP2       -8.1247     1.1787  1937.8952 O.co2    594 DT      0.0000
   1978 O5'       -7.2555     3.6022  1937.9130 O.3      594 DT      0.0000
   1979 C5'       -6.5571     4.5951  1938.6644 C.3      594 DT      0.0000
   1980 C4'       -5.3156     4.9617  1937.9164 C.3      594 DT      0.0000
   1981 O4'       -4.2698     4.0296  1937.8594 O.3      594 DT      0.0000
   1982 C3'       -5.4760     5.4190  1936.4504 C.3      594 DT      0.0000
   1983 O3'       -4.4412     6.4017  1936.3466 O.3      594 DT      0.0000
   1984 C2'       -5.1291     4.1341  1935.6866 C.3      594 DT      0.0000
   1985 C1'       -3.8743     3.7893  1936.4624 C.3      594 DT      0.0000
   1986 N1        -3.4181     2.4005  1936.3562 N.am     594 DT      0.0000
   1987 C2        -2.0280     2.2233  1936.3556 C.2      594 DT      0.0000
   1988 O2        -1.2634     3.1895  1936.3986 O.2      594 DT      0.0000
   1989 N3        -1.5656     0.9398  1936.3021 N.am     594 DT      0.0000
   1990 C4        -2.3941    -0.1411  1936.2424 C.2      594 DT      0.0000
   1991 O4        -1.8671    -1.2925  1936.1800 O.2      594 DT      0.0000
   1992 C5        -3.8003     0.0672  1936.2506 C.2      594 DT      0.0000
   1993 C7        -4.7324    -1.1247  1936.1892 C.3      594 DT      0.0000
   1994 C6        -4.2481     1.3244  1936.3171 C.2      594 DT      0.0000
   1995 H5'       -7.1874     5.4759  1938.7866 H        594 DT      0.0000
   1996 H5''      -6.2914     4.1952  1939.6430 H        594 DT      0.0000
   1997 H4'       -4.9054     5.8230  1938.4437 H        594 DT      0.0000
   1998 H3'       -6.4688     5.8066  1936.2217 H        594 DT      0.0000
   1999 H2'       -4.9290     4.3181  1934.6311 H        594 DT      0.0000
   2000 H2''      -5.8989     3.3738  1935.8182 H        594 DT      0.0000
   2001 H1'       -3.0676     4.4672  1936.1833 H        594 DT      0.0000
   2002 H3        -0.5676     0.7847  1936.3070 H        594 DT      0.0000
   2003 H6        -5.3146     1.4928  1936.3408 H        594 DT      0.0000
   2004 H71       -4.1467    -2.0426  1936.1404 H        594 DT      0.0000
   2005 H72       -5.3619    -1.0481  1935.3026 H        594 DT      0.0000
   2006 H73       -5.3602    -1.1413  1937.0801 H        594 DT      0.0000
   2007 P         -4.2458     7.4305  1935.2004 P.3      593 DC      0.0000
   2008 OP1       -4.0326     8.8175  1935.8095 O.co2    593 DC      0.0000
   2009 OP2       -5.5218     7.4156  1934.4185 O.co2    593 DC      0.0000
   2010 O5'       -2.9243     6.8296  1934.4610 O.3      593 DC      0.0000
   2011 C5'       -1.6665     7.0301  1935.1855 C.3      593 DC      0.0000
   2012 C4'       -0.6037     7.2223  1934.1350 C.3      593 DC      0.0000
   2013 O4'        0.1239     6.0413  1933.8897 O.3      593 DC      0.0000
   2014 C3'       -1.1124     7.6905  1932.7705 C.3      593 DC      0.0000
   2015 O3'       -0.2144     8.5468  1932.0613 O.3      593 DC      0.0000
   2016 C2'       -1.3696     6.3418  1932.0844 C.3      593 DC      0.0000
   2017 C1'       -0.2380     5.4736  1932.6310 C.3      593 DC      0.0000
   2018 N1        -0.7437     4.0857  1932.7488 N.am     593 DC      0.0000
   2019 C2         0.2056     3.0648  1932.7661 C.2      593 DC      0.0000
   2020 O2         1.4167     3.3152  1932.6974 O.2      593 DC      0.0000
   2021 N3        -0.2573     1.7808  1932.8693 N.2      593 DC      0.0000
   2022 C4        -1.5836     1.4946  1932.9400 C.2      593 DC      0.0000
   2023 N4        -1.9858     0.2259  1933.0420 N.pl3    593 DC      0.0000
   2024 C5        -2.5315     2.5554  1932.9149 C.2      593 DC      0.0000
   2025 C6        -2.0759     3.8164  1932.8213 C.2      593 DC      0.0000
   2026 H5'       -1.7332     7.9128  1935.8215 H        593 DC      0.0000
   2027 H5''      -1.4395     6.1515  1935.7894 H        593 DC      0.0000
   2028 H4'        0.0957     7.9725  1934.5037 H        593 DC      0.0000
   2029 H3'       -2.0628     8.2069  1932.9047 H        593 DC      0.0000
   2030 H2'       -1.3076     6.4332  1931.0000 H        593 DC      0.0000
   2031 H2''      -2.3385     5.9397  1932.3804 H        593 DC      0.0000
   2032 H1'        0.6139     5.5023  1931.9516 H        593 DC      0.0000
   2033 H5        -3.5908     2.3523  1932.9697 H        593 DC      0.0000
   2034 H6        -2.7821     4.6335  1932.8032 H        593 DC      0.0000
   2035 H41       -1.3047    -0.5197  1933.0627 H        593 DC      0.0000
   2036 H42       -2.9712     0.0115  1933.0983 H        593 DC      0.0000
   2037 P          0.0190     8.5615  1930.4293 P.3      592 DA      0.0000
   2038 OP1        0.5649     9.9183  1930.0398 O.co2    592 DA      0.0000
   2039 OP2       -1.3172     8.2388  1929.8592 O.co2    592 DA      0.0000
   2040 O5'        1.1892     7.4883  1930.2637 O.3      592 DA      0.0000
   2041 C5'        2.5434     7.8642  1930.7292 C.3      592 DA      0.0000
   2042 C4'        3.4256     6.9923  1929.8519 C.3      592 DA      0.0000
   2043 O4'        3.1588     5.6097  1930.1192 O.3      592 DA      0.0000
   2044 C3'        3.1459     7.1576  1928.3475 C.3      592 DA      0.0000
   2045 O3'        4.2049     6.6393  1927.5584 O.3      592 DA      0.0000
   2046 C2'        1.9794     6.1701  1928.1600 C.3      592 DA      0.0000
   2047 C1'        2.6723     5.0026  1928.9147 C.3      592 DA      0.0000
   2048 N9         1.6295     3.9921  1929.0601 N.ar     592 DA      0.0000
   2049 C8         0.2734     4.2197  1929.1329 C.ar     592 DA      0.0000
   2050 N7        -0.4322     3.1227  1929.2476 N.ar     592 DA      0.0000
   2051 C5         0.5381     2.1047  1929.2412 C.ar     592 DA      0.0000
   2052 C6         0.4077     0.6922  1929.3411 C.ar     592 DA      0.0000
   2053 N6        -0.7635     0.0609  1929.4640 N.pl3    592 DA      0.0000
   2054 N1         1.5887     0.0139  1929.3060 N.ar     592 DA      0.0000
   2055 C2         2.7776     0.6542  1929.1871 C.ar     592 DA      0.0000
   2056 N3         2.9725     1.9729  1929.0956 N.ar     592 DA      0.0000
   2057 C4         1.8006     2.6314  1929.1232 C.ar     592 DA      0.0000
   2058 H5'        2.7407     8.9231  1930.5624 H        592 DA      0.0000
   2059 H5''       2.6738     7.6090  1931.7808 H        592 DA      0.0000
   2060 H4'        4.4741     7.2094  1930.0558 H        592 DA      0.0000
   2061 H3'        2.8804     8.1798  1928.0778 H        592 DA      0.0000
   2062 H2'        1.0596     6.5017  1928.6416 H        592 DA      0.0000
   2063 H2''       1.8195     5.9310  1927.1086 H        592 DA      0.0000
   2064 H1'        3.5015     4.6099  1928.3262 H        592 DA      0.0000
   2065 H8        -0.1650     5.2062  1929.0989 H        592 DA      0.0000
   2066 H2         3.6605     0.0328  1929.1639 H        592 DA      0.0000
   2067 H61       -1.6228     0.5910  1929.4887 H        592 DA      0.0000
   2068 H62       -0.7895    -0.9465  1929.5321 H        592 DA      0.0000
   2069 P          4.8728     7.5190  1926.4175 P.3      591 DC      0.0000
   2070 OP1        5.8833     8.3434  1927.1978 O.co2    591 DC      0.0000
   2071 OP2        3.8974     8.3404  1925.6919 O.co2    591 DC      0.0000
   2072 O5'        5.4768     6.3411  1925.4416 O.3      591 DC      0.0000
   2073 C5'        6.3210     5.3280  1926.1107 C.3      591 DC      0.0000
   2074 C4'        6.0641     3.9912  1925.4666 C.3      591 DC      0.0000
   2075 O4'        5.0420     3.2346  1926.1038 O.3      591 DC      0.0000
   2076 C3'        5.6534     4.1078  1923.9888 C.3      591 DC      0.0000
   2077 O3'        6.1039     3.0302  1923.1775 O.3      591 DC      0.0000
   2078 C2'        4.1015     4.0084  1924.1545 C.3      591 DC      0.0000
   2079 C1'        4.2017     2.7190  1925.0500 C.3      591 DC      0.0000
   2080 N1         2.8560     2.2664  1925.2879 N.am     591 DC      0.0000
   2081 C2         2.6540     0.9330  1925.6051 C.2      591 DC      0.0000
   2082 O2         3.4768     0.0212  1925.7455 O.2      591 DC      0.0000
   2083 N3         1.3695     0.5082  1925.8033 N.2      591 DC      0.0000
   2084 C4         0.3008     1.3538  1925.6873 C.2      591 DC      0.0000
   2085 N4        -0.9415     0.8939  1925.9034 N.pl3    591 DC      0.0000
   2086 C5         0.5238     2.7192  1925.3577 C.2      591 DC      0.0000
   2087 C6         1.7889     3.1107  1925.1660 C.2      591 DC      0.0000
   2088 H5'        7.3722     5.5937  1925.9992 H        591 DC      0.0000
   2089 H5''       6.0657     5.2797  1927.1693 H        591 DC      0.0000
   2090 H4'        6.9873     3.4136  1925.5134 H        591 DC      0.0000
   2091 H3'        5.9472     5.0702  1923.5698 H        591 DC      0.0000
   2092 H2'        3.6648     4.8628  1924.6716 H        591 DC      0.0000
   2093 H2''       3.6027     3.8078  1923.2062 H        591 DC      0.0000
   2094 H1'        4.7462     1.9477  1924.5051 H        591 DC      0.0000
   2095 H5        -0.2976     3.4144  1925.2655 H        591 DC      0.0000
   2096 H6         1.9749     4.1415  1924.9027 H        591 DC      0.0000
   2097 H41       -1.0861    -0.0763  1926.1439 H        591 DC      0.0000
   2098 H42       -1.7318     1.5180  1925.8255 H        591 DC      0.0000
@<TRIPOS>BOND
     1      9     31 1
     2     39     63 1
     3    101    126 1
     4    134    158 1
     5      1      2 1
     6      1      3 1
     7      1      4 1
     8      4      5 1
     9      5      6 1
    10      6      7 1
    11      6      8 1
    12      7     11 1
    13      8      9 1
    14      8     10 1
    15     10     11 1
    16     11     12 1
    17     12     13 am
    18     12     19 1
    19     13     14 2
    20     13     15 1
    21     15     16 2
    22     16     17 2
    23     16     18 2
    24     18     19 2
    25     31     32 1
    26     31     33 1
    27     31     34 1
    28     34     35 1
    29     35     36 1
    30     36     37 1
    31     36     38 1
    32     37     41 1
    33     38     39 1
    34     38     40 1
    35     40     41 1
    36     41     42 1
    37     42     43 ar
    38     42     51 ar
    39     43     44 ar
    40     44     45 ar
    41     45     46 ar
    42     45     51 ar
    43     46     47 1
    44     46     48 ar
    45     48     49 ar
    46     49     50 ar
    47     50     51 ar
    48     63     64 1
    49     63     65 1
    50     63     66 1
    51     66     67 1
    52     67     68 1
    53     68     69 1
    54     68     70 1
    55     69     73 1
    56     70     71 1
    57     70     72 1
    58     72     73 1
    59     73     74 1
    60     74     75 am
    61     74     81 1
    62     75     76 2
    63     75     77 1
    64     77     78 2
    65     78     79 2
    66     78     80 2
    67     80     81 2
    68     93     94 1
    69     93     95 1
    70     93     96 1
    71     96     97 1
    72     97     98 1
    73     98     99 1
    74     98    100 1
    75     99    103 1
    76    100    101 1
    77    100    102 1
    78    102    103 1
    79    103    104 1
    80    104    105 ar
    81    104    114 ar
    82    105    106 ar
    83    106    107 ar
    84    107    108 1
    85    107    114 ar
    86    108    109 2
    87    108    110 am
    88    110    111 1
    89    111    112 2
    90    111    113 2
    91    113    114 1
    92    126    127 1
    93    126    128 1
    94    126    129 1
    95    129    130 1
    96    130    131 1
    97    131    132 1
    98    131    133 1
    99    132    136 1
   100    133    134 1
   101    133    135 1
   102    135    136 1
   103    136    137 1
   104    137    138 am
   105    137    145 1
   106    138    139 2
   107    138    140 am
   108    140    141 am
   109    141    142 2
   110    141    143 1
   111    143    144 1
   112    143    145 2
   113    158    159 1
   114    158    160 1
   115    158    161 1
   116    161    162 1
   117    162    163 1
   118    163    164 1
   119    163    165 1
   120    164    168 1
   121    165    166 1
   122    165    167 1
   123    167    168 1
   124    168    169 1
   125    169    170 ar
   126    169    179 ar
   127    170    171 ar
   128    171    172 ar
   129    172    173 1
   130    172    179 ar
   131    173    174 2
   132    173    175 am
   133    175    176 1
   134    176    177 2
   135    176    178 2
   136    178    179 1
   137     20      5 1
   138     21      5 1
   139     22      6 1
   140     23      8 1
   141     24     10 1
   142     25     10 1
   143     26     11 1
   144     27     18 1
   145     28     19 1
   146     52     35 1
   147     53     35 1
   148     54     36 1
   149     55     38 1
   150     56     40 1
   151     57     40 1
   152     58     41 1
   153     59     43 1
   154     60     49 1
   155     82     67 1
   156     83     67 1
   157     84     68 1
   158     85     70 1
   159     86     72 1
   160     87     72 1
   161     88     73 1
   162     89     80 1
   163     90     81 1
   164    115     97 1
   165    116     97 1
   166    117     98 1
   167    118    100 1
   168    119    102 1
   169    120    102 1
   170    121    103 1
   171    122    105 1
   172    123    110 1
   173    146    130 1
   174    147    130 1
   175    148    131 1
   176    149    133 1
   177    150    135 1
   178    151    135 1
   179    152    136 1
   180    153    140 1
   181    154    145 1
   182    180    162 1
   183    181    162 1
   184    182    163 1
   185    183    165 1
   186    184    167 1
   187    185    167 1
   188    186    168 1
   189    187    170 1
   190    188    175 1
   191     29     17 1
   192     30     17 1
   193     91     79 1
   194     92     79 1
   195    124    112 1
   196    125    112 1
   197    189    177 1
   198    190    177 1
   199     61     47 1
   200     62     47 1
   201    155    144 1
   202    156    144 1
   203    157    144 1
   204     71    191 1
   205     93    805 1
   206    199    224 1
   207    232    256 1
   208    264    289 1
   209    297    321 1
   210    329    353 1
   211    361    385 1
   212    393    417 1
   213    425    447 1
   214    455    479 1
   215    517    542 1
   216    550    574 1
   217    582    607 1
   218    615    639 1
   219    647    671 1
   220    679    703 1
   221    711    735 1
   222    743    765 1
   223    773    797 1
   224    191    192 1
   225    191    193 1
   226    191    194 1
   227    194    195 1
   228    195    196 1
   229    196    197 1
   230    196    198 1
   231    197    201 1
   232    198    199 1
   233    198    200 1
   234    200    201 1
   235    201    202 1
   236    202    203 ar
   237    202    212 ar
   238    203    204 ar
   239    204    205 ar
   240    205    206 1
   241    205    212 ar
   242    206    207 2
   243    206    208 am
   244    208    209 1
   245    209    210 2
   246    209    211 2
   247    211    212 1
   248    224    225 1
   249    224    226 1
   250    224    227 1
   251    227    228 1
   252    228    229 1
   253    229    230 1
   254    229    231 1
   255    230    234 1
   256    231    232 1
   257    231    233 1
   258    233    234 1
   259    234    235 1
   260    235    236 am
   261    235    243 1
   262    236    237 2
   263    236    238 am
   264    238    239 am
   265    239    240 2
   266    239    241 1
   267    241    242 1
   268    241    243 2
   269    256    257 1
   270    256    258 1
   271    256    259 1
   272    259    260 1
   273    260    261 1
   274    261    262 1
   275    261    263 1
   276    262    266 1
   277    263    264 1
   278    263    265 1
   279    265    266 1
   280    266    267 1
   281    267    268 ar
   282    267    277 ar
   283    268    269 ar
   284    269    270 ar
   285    270    271 1
   286    270    277 ar
   287    271    272 2
   288    271    273 am
   289    273    274 1
   290    274    275 2
   291    274    276 2
   292    276    277 1
   293    289    290 1
   294    289    291 1
   295    289    292 1
   296    292    293 1
   297    293    294 1
   298    294    295 1
   299    294    296 1
   300    295    299 1
   301    296    297 1
   302    296    298 1
   303    298    299 1
   304    299    300 1
   305    300    301 ar
   306    300    309 ar
   307    301    302 ar
   308    302    303 ar
   309    303    304 ar
   310    303    309 ar
   311    304    305 1
   312    304    306 ar
   313    306    307 ar
   314    307    308 ar
   315    308    309 ar
   316    321    322 1
   317    321    323 1
   318    321    324 1
   319    324    325 1
   320    325    326 1
   321    326    327 1
   322    326    328 1
   323    327    331 1
   324    328    329 1
   325    328    330 1
   326    330    331 1
   327    331    332 1
   328    332    333 ar
   329    332    341 ar
   330    333    334 ar
   331    334    335 ar
   332    335    336 ar
   333    335    341 ar
   334    336    337 1
   335    336    338 ar
   336    338    339 ar
   337    339    340 ar
   338    340    341 ar
   339    353    354 1
   340    353    355 1
   341    353    356 1
   342    356    357 1
   343    357    358 1
   344    358    359 1
   345    358    360 1
   346    359    363 1
   347    360    361 1
   348    360    362 1
   349    362    363 1
   350    363    364 1
   351    364    365 am
   352    364    372 1
   353    365    366 2
   354    365    367 am
   355    367    368 am
   356    368    369 2
   357    368    370 1
   358    370    371 1
   359    370    372 2
   360    385    386 1
   361    385    387 1
   362    385    388 1
   363    388    389 1
   364    389    390 1
   365    390    391 1
   366    390    392 1
   367    391    395 1
   368    392    393 1
   369    392    394 1
   370    394    395 1
   371    395    396 1
   372    396    397 am
   373    396    404 1
   374    397    398 2
   375    397    399 am
   376    399    400 am
   377    400    401 2
   378    400    402 1
   379    402    403 1
   380    402    404 2
   381    417    418 1
   382    417    419 1
   383    417    420 1
   384    420    421 1
   385    421    422 1
   386    422    423 1
   387    422    424 1
   388    423    427 1
   389    424    425 1
   390    424    426 1
   391    426    427 1
   392    427    428 1
   393    428    429 am
   394    428    435 1
   395    429    430 2
   396    429    431 1
   397    431    432 2
   398    432    433 2
   399    432    434 2
   400    434    435 2
   401    447    448 1
   402    447    449 1
   403    447    450 1
   404    450    451 1
   405    451    452 1
   406    452    453 1
   407    452    454 1
   408    453    457 1
   409    454    455 1
   410    454    456 1
   411    456    457 1
   412    457    458 1
   413    458    459 ar
   414    458    467 ar
   415    459    460 ar
   416    460    461 ar
   417    461    462 ar
   418    461    467 ar
   419    462    463 1
   420    462    464 ar
   421    464    465 ar
   422    465    466 ar
   423    466    467 ar
   424    479    480 1
   425    479    481 1
   426    479    482 1
   427    482    483 1
   428    483    484 1
   429    484    485 1
   430    484    486 1
   431    485    489 1
   432    486    487 1
   433    486    488 1
   434    488    489 1
   435    489    490 1
   436    490    491 am
   437    490    497 1
   438    491    492 2
   439    491    493 1
   440    493    494 2
   441    494    495 2
   442    494    496 2
   443    496    497 2
   444    509    510 1
   445    509    511 1
   446    509    512 1
   447    512    513 1
   448    513    514 1
   449    514    515 1
   450    514    516 1
   451    515    519 1
   452    516    517 1
   453    516    518 1
   454    518    519 1
   455    519    520 1
   456    520    521 ar
   457    520    530 ar
   458    521    522 ar
   459    522    523 ar
   460    523    524 1
   461    523    530 ar
   462    524    525 2
   463    524    526 am
   464    526    527 1
   465    527    528 2
   466    527    529 2
   467    529    530 1
   468    542    543 1
   469    542    544 1
   470    542    545 1
   471    545    546 1
   472    546    547 1
   473    547    548 1
   474    547    549 1
   475    548    552 1
   476    549    550 1
   477    549    551 1
   478    551    552 1
   479    552    553 1
   480    553    554 am
   481    553    561 1
   482    554    555 2
   483    554    556 am
   484    556    557 am
   485    557    558 2
   486    557    559 1
   487    559    560 1
   488    559    561 2
   489    574    575 1
   490    574    576 1
   491    574    577 1
   492    577    578 1
   493    578    579 1
   494    579    580 1
   495    579    581 1
   496    580    584 1
   497    581    582 1
   498    581    583 1
   499    583    584 1
   500    584    585 1
   501    585    586 ar
   502    585    595 ar
   503    586    587 ar
   504    587    588 ar
   505    588    589 1
   506    588    595 ar
   507    589    590 2
   508    589    591 am
   509    591    592 1
   510    592    593 2
   511    592    594 2
   512    594    595 1
   513    607    608 1
   514    607    609 1
   515    607    610 1
   516    610    611 1
   517    611    612 1
   518    612    613 1
   519    612    614 1
   520    613    617 1
   521    614    615 1
   522    614    616 1
   523    616    617 1
   524    617    618 1
   525    618    619 ar
   526    618    627 ar
   527    619    620 ar
   528    620    621 ar
   529    621    622 ar
   530    621    627 ar
   531    622    623 1
   532    622    624 ar
   533    624    625 ar
   534    625    626 ar
   535    626    627 ar
   536    639    640 1
   537    639    641 1
   538    639    642 1
   539    642    643 1
   540    643    644 1
   541    644    645 1
   542    644    646 1
   543    645    649 1
   544    646    647 1
   545    646    648 1
   546    648    649 1
   547    649    650 1
   548    650    651 ar
   549    650    659 ar
   550    651    652 ar
   551    652    653 ar
   552    653    654 ar
   553    653    659 ar
   554    654    655 1
   555    654    656 ar
   556    656    657 ar
   557    657    658 ar
   558    658    659 ar
   559    671    672 1
   560    671    673 1
   561    671    674 1
   562    674    675 1
   563    675    676 1
   564    676    677 1
   565    676    678 1
   566    677    681 1
   567    678    679 1
   568    678    680 1
   569    680    681 1
   570    681    682 1
   571    682    683 am
   572    682    690 1
   573    683    684 2
   574    683    685 am
   575    685    686 am
   576    686    687 2
   577    686    688 1
   578    688    689 1
   579    688    690 2
   580    703    704 1
   581    703    705 1
   582    703    706 1
   583    706    707 1
   584    707    708 1
   585    708    709 1
   586    708    710 1
   587    709    713 1
   588    710    711 1
   589    710    712 1
   590    712    713 1
   591    713    714 1
   592    714    715 am
   593    714    722 1
   594    715    716 2
   595    715    717 am
   596    717    718 am
   597    718    719 2
   598    718    720 1
   599    720    721 1
   600    720    722 2
   601    735    736 1
   602    735    737 1
   603    735    738 1
   604    738    739 1
   605    739    740 1
   606    740    741 1
   607    740    742 1
   608    741    745 1
   609    742    743 1
   610    742    744 1
   611    744    745 1
   612    745    746 1
   613    746    747 am
   614    746    753 1
   615    747    748 2
   616    747    749 1
   617    749    750 2
   618    750    751 2
   619    750    752 2
   620    752    753 2
   621    765    766 1
   622    765    767 1
   623    765    768 1
   624    768    769 1
   625    769    770 1
   626    770    771 1
   627    770    772 1
   628    771    775 1
   629    772    773 1
   630    772    774 1
   631    774    775 1
   632    775    776 1
   633    776    777 ar
   634    776    785 ar
   635    777    778 ar
   636    778    779 ar
   637    779    780 ar
   638    779    785 ar
   639    780    781 1
   640    780    782 ar
   641    782    783 ar
   642    783    784 ar
   643    784    785 ar
   644    797    798 1
   645    797    799 1
   646    797    800 1
   647    800    801 1
   648    801    802 1
   649    802    803 1
   650    802    804 1
   651    803    807 1
   652    804    805 1
   653    804    806 1
   654    806    807 1
   655    807    808 1
   656    808    809 am
   657    808    815 1
   658    809    810 2
   659    809    811 1
   660    811    812 2
   661    812    813 2
   662    812    814 2
   663    814    815 2
   664    213    195 1
   665    214    195 1
   666    215    196 1
   667    216    198 1
   668    217    200 1
   669    218    200 1
   670    219    201 1
   671    220    203 1
   672    221    208 1
   673    244    228 1
   674    245    228 1
   675    246    229 1
   676    247    231 1
   677    248    233 1
   678    249    233 1
   679    250    234 1
   680    251    238 1
   681    252    243 1
   682    278    260 1
   683    279    260 1
   684    280    261 1
   685    281    263 1
   686    282    265 1
   687    283    265 1
   688    284    266 1
   689    285    268 1
   690    286    273 1
   691    310    293 1
   692    311    293 1
   693    312    294 1
   694    313    296 1
   695    314    298 1
   696    315    298 1
   697    316    299 1
   698    317    301 1
   699    318    307 1
   700    342    325 1
   701    343    325 1
   702    344    326 1
   703    345    328 1
   704    346    330 1
   705    347    330 1
   706    348    331 1
   707    349    333 1
   708    350    339 1
   709    373    357 1
   710    374    357 1
   711    375    358 1
   712    376    360 1
   713    377    362 1
   714    378    362 1
   715    379    363 1
   716    380    367 1
   717    381    372 1
   718    405    389 1
   719    406    389 1
   720    407    390 1
   721    408    392 1
   722    409    394 1
   723    410    394 1
   724    411    395 1
   725    412    399 1
   726    413    404 1
   727    436    421 1
   728    437    421 1
   729    438    422 1
   730    439    424 1
   731    440    426 1
   732    441    426 1
   733    442    427 1
   734    443    434 1
   735    444    435 1
   736    468    451 1
   737    469    451 1
   738    470    452 1
   739    471    454 1
   740    472    456 1
   741    473    456 1
   742    474    457 1
   743    475    459 1
   744    476    465 1
   745    498    483 1
   746    499    483 1
   747    500    484 1
   748    501    486 1
   749    502    488 1
   750    503    488 1
   751    504    489 1
   752    505    496 1
   753    506    497 1
   754    531    513 1
   755    532    513 1
   756    533    514 1
   757    534    516 1
   758    535    518 1
   759    536    518 1
   760    537    519 1
   761    538    521 1
   762    539    526 1
   763    562    546 1
   764    563    546 1
   765    564    547 1
   766    565    549 1
   767    566    551 1
   768    567    551 1
   769    568    552 1
   770    569    556 1
   771    570    561 1
   772    596    578 1
   773    597    578 1
   774    598    579 1
   775    599    581 1
   776    600    583 1
   777    601    583 1
   778    602    584 1
   779    603    586 1
   780    604    591 1
   781    628    611 1
   782    629    611 1
   783    630    612 1
   784    631    614 1
   785    632    616 1
   786    633    616 1
   787    634    617 1
   788    635    619 1
   789    636    625 1
   790    660    643 1
   791    661    643 1
   792    662    644 1
   793    663    646 1
   794    664    648 1
   795    665    648 1
   796    666    649 1
   797    667    651 1
   798    668    657 1
   799    691    675 1
   800    692    675 1
   801    693    676 1
   802    694    678 1
   803    695    680 1
   804    696    680 1
   805    697    681 1
   806    698    685 1
   807    699    690 1
   808    723    707 1
   809    724    707 1
   810    725    708 1
   811    726    710 1
   812    727    712 1
   813    728    712 1
   814    729    713 1
   815    730    717 1
   816    731    722 1
   817    754    739 1
   818    755    739 1
   819    756    740 1
   820    757    742 1
   821    758    744 1
   822    759    744 1
   823    760    745 1
   824    761    752 1
   825    762    753 1
   826    786    769 1
   827    787    769 1
   828    788    770 1
   829    789    772 1
   830    790    774 1
   831    791    774 1
   832    792    775 1
   833    793    777 1
   834    794    783 1
   835    816    801 1
   836    817    801 1
   837    818    802 1
   838    819    804 1
   839    820    806 1
   840    821    806 1
   841    822    807 1
   842    823    814 1
   843    824    815 1
   844    222    210 1
   845    223    210 1
   846    287    275 1
   847    288    275 1
   848    445    433 1
   849    446    433 1
   850    507    495 1
   851    508    495 1
   852    540    528 1
   853    541    528 1
   854    605    593 1
   855    606    593 1
   856    763    751 1
   857    764    751 1
   858    825    813 1
   859    826    813 1
   860    319    305 1
   861    320    305 1
   862    351    337 1
   863    352    337 1
   864    477    463 1
   865    478    463 1
   866    637    623 1
   867    638    623 1
   868    669    655 1
   869    670    655 1
   870    795    781 1
   871    796    781 1
   872    253    242 1
   873    254    242 1
   874    255    242 1
   875    382    371 1
   876    383    371 1
   877    384    371 1
   878    414    403 1
   879    415    403 1
   880    416    403 1
   881    571    560 1
   882    572    560 1
   883    573    560 1
   884    700    689 1
   885    701    689 1
   886    702    689 1
   887    732    721 1
   888    733    721 1
   889    734    721 1
   890    487    827 1
   891    509   1441 1
   892    835    860 1
   893    868    892 1
   894    900    925 1
   895    933    957 1
   896    965    989 1
   897    997   1021 1
   898   1029   1053 1
   899   1061   1083 1
   900   1091   1115 1
   901   1153   1178 1
   902   1186   1210 1
   903   1218   1243 1
   904   1251   1275 1
   905   1283   1307 1
   906   1315   1339 1
   907   1347   1371 1
   908   1379   1401 1
   909   1409   1433 1
   910    827    828 1
   911    827    829 1
   912    827    830 1
   913    830    831 1
   914    831    832 1
   915    832    833 1
   916    832    834 1
   917    833    837 1
   918    834    835 1
   919    834    836 1
   920    836    837 1
   921    837    838 1
   922    838    839 ar
   923    838    848 ar
   924    839    840 ar
   925    840    841 ar
   926    841    842 1
   927    841    848 ar
   928    842    843 2
   929    842    844 am
   930    844    845 1
   931    845    846 2
   932    845    847 2
   933    847    848 1
   934    860    861 1
   935    860    862 1
   936    860    863 1
   937    863    864 1
   938    864    865 1
   939    865    866 1
   940    865    867 1
   941    866    870 1
   942    867    868 1
   943    867    869 1
   944    869    870 1
   945    870    871 1
   946    871    872 am
   947    871    879 1
   948    872    873 2
   949    872    874 am
   950    874    875 am
   951    875    876 2
   952    875    877 1
   953    877    878 1
   954    877    879 2
   955    892    893 1
   956    892    894 1
   957    892    895 1
   958    895    896 1
   959    896    897 1
   960    897    898 1
   961    897    899 1
   962    898    902 1
   963    899    900 1
   964    899    901 1
   965    901    902 1
   966    902    903 1
   967    903    904 ar
   968    903    913 ar
   969    904    905 ar
   970    905    906 ar
   971    906    907 1
   972    906    913 ar
   973    907    908 2
   974    907    909 am
   975    909    910 1
   976    910    911 2
   977    910    912 2
   978    912    913 1
   979    925    926 1
   980    925    927 1
   981    925    928 1
   982    928    929 1
   983    929    930 1
   984    930    931 1
   985    930    932 1
   986    931    935 1
   987    932    933 1
   988    932    934 1
   989    934    935 1
   990    935    936 1
   991    936    937 ar
   992    936    945 ar
   993    937    938 ar
   994    938    939 ar
   995    939    940 ar
   996    939    945 ar
   997    940    941 1
   998    940    942 ar
   999    942    943 ar
  1000    943    944 ar
  1001    944    945 ar
  1002    957    958 1
  1003    957    959 1
  1004    957    960 1
  1005    960    961 1
  1006    961    962 1
  1007    962    963 1
  1008    962    964 1
  1009    963    967 1
  1010    964    965 1
  1011    964    966 1
  1012    966    967 1
  1013    967    968 1
  1014    968    969 ar
  1015    968    977 ar
  1016    969    970 ar
  1017    970    971 ar
  1018    971    972 ar
  1019    971    977 ar
  1020    972    973 1
  1021    972    974 ar
  1022    974    975 ar
  1023    975    976 ar
  1024    976    977 ar
  1025    989    990 1
  1026    989    991 1
  1027    989    992 1
  1028    992    993 1
  1029    993    994 1
  1030    994    995 1
  1031    994    996 1
  1032    995    999 1
  1033    996    997 1
  1034    996    998 1
  1035    998    999 1
  1036    999   1000 1
  1037   1000   1001 am
  1038   1000   1008 1
  1039   1001   1002 2
  1040   1001   1003 am
  1041   1003   1004 am
  1042   1004   1005 2
  1043   1004   1006 1
  1044   1006   1007 1
  1045   1006   1008 2
  1046   1021   1022 1
  1047   1021   1023 1
  1048   1021   1024 1
  1049   1024   1025 1
  1050   1025   1026 1
  1051   1026   1027 1
  1052   1026   1028 1
  1053   1027   1031 1
  1054   1028   1029 1
  1055   1028   1030 1
  1056   1030   1031 1
  1057   1031   1032 1
  1058   1032   1033 am
  1059   1032   1040 1
  1060   1033   1034 2
  1061   1033   1035 am
  1062   1035   1036 am
  1063   1036   1037 2
  1064   1036   1038 1
  1065   1038   1039 1
  1066   1038   1040 2
  1067   1053   1054 1
  1068   1053   1055 1
  1069   1053   1056 1
  1070   1056   1057 1
  1071   1057   1058 1
  1072   1058   1059 1
  1073   1058   1060 1
  1074   1059   1063 1
  1075   1060   1061 1
  1076   1060   1062 1
  1077   1062   1063 1
  1078   1063   1064 1
  1079   1064   1065 am
  1080   1064   1071 1
  1081   1065   1066 2
  1082   1065   1067 1
  1083   1067   1068 2
  1084   1068   1069 2
  1085   1068   1070 2
  1086   1070   1071 2
  1087   1083   1084 1
  1088   1083   1085 1
  1089   1083   1086 1
  1090   1086   1087 1
  1091   1087   1088 1
  1092   1088   1089 1
  1093   1088   1090 1
  1094   1089   1093 1
  1095   1090   1091 1
  1096   1090   1092 1
  1097   1092   1093 1
  1098   1093   1094 1
  1099   1094   1095 ar
  1100   1094   1103 ar
  1101   1095   1096 ar
  1102   1096   1097 ar
  1103   1097   1098 ar
  1104   1097   1103 ar
  1105   1098   1099 1
  1106   1098   1100 ar
  1107   1100   1101 ar
  1108   1101   1102 ar
  1109   1102   1103 ar
  1110   1115   1116 1
  1111   1115   1117 1
  1112   1115   1118 1
  1113   1118   1119 1
  1114   1119   1120 1
  1115   1120   1121 1
  1116   1120   1122 1
  1117   1121   1125 1
  1118   1122   1123 1
  1119   1122   1124 1
  1120   1124   1125 1
  1121   1125   1126 1
  1122   1126   1127 am
  1123   1126   1133 1
  1124   1127   1128 2
  1125   1127   1129 1
  1126   1129   1130 2
  1127   1130   1131 2
  1128   1130   1132 2
  1129   1132   1133 2
  1130   1145   1146 1
  1131   1145   1147 1
  1132   1145   1148 1
  1133   1148   1149 1
  1134   1149   1150 1
  1135   1150   1151 1
  1136   1150   1152 1
  1137   1151   1155 1
  1138   1152   1153 1
  1139   1152   1154 1
  1140   1154   1155 1
  1141   1155   1156 1
  1142   1156   1157 ar
  1143   1156   1166 ar
  1144   1157   1158 ar
  1145   1158   1159 ar
  1146   1159   1160 1
  1147   1159   1166 ar
  1148   1160   1161 2
  1149   1160   1162 am
  1150   1162   1163 1
  1151   1163   1164 2
  1152   1163   1165 2
  1153   1165   1166 1
  1154   1178   1179 1
  1155   1178   1180 1
  1156   1178   1181 1
  1157   1181   1182 1
  1158   1182   1183 1
  1159   1183   1184 1
  1160   1183   1185 1
  1161   1184   1188 1
  1162   1185   1186 1
  1163   1185   1187 1
  1164   1187   1188 1
  1165   1188   1189 1
  1166   1189   1190 am
  1167   1189   1197 1
  1168   1190   1191 2
  1169   1190   1192 am
  1170   1192   1193 am
  1171   1193   1194 2
  1172   1193   1195 1
  1173   1195   1196 1
  1174   1195   1197 2
  1175   1210   1211 1
  1176   1210   1212 1
  1177   1210   1213 1
  1178   1213   1214 1
  1179   1214   1215 1
  1180   1215   1216 1
  1181   1215   1217 1
  1182   1216   1220 1
  1183   1217   1218 1
  1184   1217   1219 1
  1185   1219   1220 1
  1186   1220   1221 1
  1187   1221   1222 ar
  1188   1221   1231 ar
  1189   1222   1223 ar
  1190   1223   1224 ar
  1191   1224   1225 1
  1192   1224   1231 ar
  1193   1225   1226 2
  1194   1225   1227 am
  1195   1227   1228 1
  1196   1228   1229 2
  1197   1228   1230 2
  1198   1230   1231 1
  1199   1243   1244 1
  1200   1243   1245 1
  1201   1243   1246 1
  1202   1246   1247 1
  1203   1247   1248 1
  1204   1248   1249 1
  1205   1248   1250 1
  1206   1249   1253 1
  1207   1250   1251 1
  1208   1250   1252 1
  1209   1252   1253 1
  1210   1253   1254 1
  1211   1254   1255 ar
  1212   1254   1263 ar
  1213   1255   1256 ar
  1214   1256   1257 ar
  1215   1257   1258 ar
  1216   1257   1263 ar
  1217   1258   1259 1
  1218   1258   1260 ar
  1219   1260   1261 ar
  1220   1261   1262 ar
  1221   1262   1263 ar
  1222   1275   1276 1
  1223   1275   1277 1
  1224   1275   1278 1
  1225   1278   1279 1
  1226   1279   1280 1
  1227   1280   1281 1
  1228   1280   1282 1
  1229   1281   1285 1
  1230   1282   1283 1
  1231   1282   1284 1
  1232   1284   1285 1
  1233   1285   1286 1
  1234   1286   1287 ar
  1235   1286   1295 ar
  1236   1287   1288 ar
  1237   1288   1289 ar
  1238   1289   1290 ar
  1239   1289   1295 ar
  1240   1290   1291 1
  1241   1290   1292 ar
  1242   1292   1293 ar
  1243   1293   1294 ar
  1244   1294   1295 ar
  1245   1307   1308 1
  1246   1307   1309 1
  1247   1307   1310 1
  1248   1310   1311 1
  1249   1311   1312 1
  1250   1312   1313 1
  1251   1312   1314 1
  1252   1313   1317 1
  1253   1314   1315 1
  1254   1314   1316 1
  1255   1316   1317 1
  1256   1317   1318 1
  1257   1318   1319 am
  1258   1318   1326 1
  1259   1319   1320 2
  1260   1319   1321 am
  1261   1321   1322 am
  1262   1322   1323 2
  1263   1322   1324 1
  1264   1324   1325 1
  1265   1324   1326 2
  1266   1339   1340 1
  1267   1339   1341 1
  1268   1339   1342 1
  1269   1342   1343 1
  1270   1343   1344 1
  1271   1344   1345 1
  1272   1344   1346 1
  1273   1345   1349 1
  1274   1346   1347 1
  1275   1346   1348 1
  1276   1348   1349 1
  1277   1349   1350 1
  1278   1350   1351 am
  1279   1350   1358 1
  1280   1351   1352 2
  1281   1351   1353 am
  1282   1353   1354 am
  1283   1354   1355 2
  1284   1354   1356 1
  1285   1356   1357 1
  1286   1356   1358 2
  1287   1371   1372 1
  1288   1371   1373 1
  1289   1371   1374 1
  1290   1374   1375 1
  1291   1375   1376 1
  1292   1376   1377 1
  1293   1376   1378 1
  1294   1377   1381 1
  1295   1378   1379 1
  1296   1378   1380 1
  1297   1380   1381 1
  1298   1381   1382 1
  1299   1382   1383 am
  1300   1382   1389 1
  1301   1383   1384 2
  1302   1383   1385 1
  1303   1385   1386 2
  1304   1386   1387 2
  1305   1386   1388 2
  1306   1388   1389 2
  1307   1401   1402 1
  1308   1401   1403 1
  1309   1401   1404 1
  1310   1404   1405 1
  1311   1405   1406 1
  1312   1406   1407 1
  1313   1406   1408 1
  1314   1407   1411 1
  1315   1408   1409 1
  1316   1408   1410 1
  1317   1410   1411 1
  1318   1411   1412 1
  1319   1412   1413 ar
  1320   1412   1421 ar
  1321   1413   1414 ar
  1322   1414   1415 ar
  1323   1415   1416 ar
  1324   1415   1421 ar
  1325   1416   1417 1
  1326   1416   1418 ar
  1327   1418   1419 ar
  1328   1419   1420 ar
  1329   1420   1421 ar
  1330   1433   1434 1
  1331   1433   1435 1
  1332   1433   1436 1
  1333   1436   1437 1
  1334   1437   1438 1
  1335   1438   1439 1
  1336   1438   1440 1
  1337   1439   1443 1
  1338   1440   1441 1
  1339   1440   1442 1
  1340   1442   1443 1
  1341   1443   1444 1
  1342   1444   1445 am
  1343   1444   1451 1
  1344   1445   1446 2
  1345   1445   1447 1
  1346   1447   1448 2
  1347   1448   1449 2
  1348   1448   1450 2
  1349   1450   1451 2
  1350    849    831 1
  1351    850    831 1
  1352    851    832 1
  1353    852    834 1
  1354    853    836 1
  1355    854    836 1
  1356    855    837 1
  1357    856    839 1
  1358    857    844 1
  1359    880    864 1
  1360    881    864 1
  1361    882    865 1
  1362    883    867 1
  1363    884    869 1
  1364    885    869 1
  1365    886    870 1
  1366    887    874 1
  1367    888    879 1
  1368    914    896 1
  1369    915    896 1
  1370    916    897 1
  1371    917    899 1
  1372    918    901 1
  1373    919    901 1
  1374    920    902 1
  1375    921    904 1
  1376    922    909 1
  1377    946    929 1
  1378    947    929 1
  1379    948    930 1
  1380    949    932 1
  1381    950    934 1
  1382    951    934 1
  1383    952    935 1
  1384    953    937 1
  1385    954    943 1
  1386    978    961 1
  1387    979    961 1
  1388    980    962 1
  1389    981    964 1
  1390    982    966 1
  1391    983    966 1
  1392    984    967 1
  1393    985    969 1
  1394    986    975 1
  1395   1009    993 1
  1396   1010    993 1
  1397   1011    994 1
  1398   1012    996 1
  1399   1013    998 1
  1400   1014    998 1
  1401   1015    999 1
  1402   1016   1003 1
  1403   1017   1008 1
  1404   1041   1025 1
  1405   1042   1025 1
  1406   1043   1026 1
  1407   1044   1028 1
  1408   1045   1030 1
  1409   1046   1030 1
  1410   1047   1031 1
  1411   1048   1035 1
  1412   1049   1040 1
  1413   1072   1057 1
  1414   1073   1057 1
  1415   1074   1058 1
  1416   1075   1060 1
  1417   1076   1062 1
  1418   1077   1062 1
  1419   1078   1063 1
  1420   1079   1070 1
  1421   1080   1071 1
  1422   1104   1087 1
  1423   1105   1087 1
  1424   1106   1088 1
  1425   1107   1090 1
  1426   1108   1092 1
  1427   1109   1092 1
  1428   1110   1093 1
  1429   1111   1095 1
  1430   1112   1101 1
  1431   1134   1119 1
  1432   1135   1119 1
  1433   1136   1120 1
  1434   1137   1122 1
  1435   1138   1124 1
  1436   1139   1124 1
  1437   1140   1125 1
  1438   1141   1132 1
  1439   1142   1133 1
  1440   1167   1149 1
  1441   1168   1149 1
  1442   1169   1150 1
  1443   1170   1152 1
  1444   1171   1154 1
  1445   1172   1154 1
  1446   1173   1155 1
  1447   1174   1157 1
  1448   1175   1162 1
  1449   1198   1182 1
  1450   1199   1182 1
  1451   1200   1183 1
  1452   1201   1185 1
  1453   1202   1187 1
  1454   1203   1187 1
  1455   1204   1188 1
  1456   1205   1192 1
  1457   1206   1197 1
  1458   1232   1214 1
  1459   1233   1214 1
  1460   1234   1215 1
  1461   1235   1217 1
  1462   1236   1219 1
  1463   1237   1219 1
  1464   1238   1220 1
  1465   1239   1222 1
  1466   1240   1227 1
  1467   1264   1247 1
  1468   1265   1247 1
  1469   1266   1248 1
  1470   1267   1250 1
  1471   1268   1252 1
  1472   1269   1252 1
  1473   1270   1253 1
  1474   1271   1255 1
  1475   1272   1261 1
  1476   1296   1279 1
  1477   1297   1279 1
  1478   1298   1280 1
  1479   1299   1282 1
  1480   1300   1284 1
  1481   1301   1284 1
  1482   1302   1285 1
  1483   1303   1287 1
  1484   1304   1293 1
  1485   1327   1311 1
  1486   1328   1311 1
  1487   1329   1312 1
  1488   1330   1314 1
  1489   1331   1316 1
  1490   1332   1316 1
  1491   1333   1317 1
  1492   1334   1321 1
  1493   1335   1326 1
  1494   1359   1343 1
  1495   1360   1343 1
  1496   1361   1344 1
  1497   1362   1346 1
  1498   1363   1348 1
  1499   1364   1348 1
  1500   1365   1349 1
  1501   1366   1353 1
  1502   1367   1358 1
  1503   1390   1375 1
  1504   1391   1375 1
  1505   1392   1376 1
  1506   1393   1378 1
  1507   1394   1380 1
  1508   1395   1380 1
  1509   1396   1381 1
  1510   1397   1388 1
  1511   1398   1389 1
  1512   1422   1405 1
  1513   1423   1405 1
  1514   1424   1406 1
  1515   1425   1408 1
  1516   1426   1410 1
  1517   1427   1410 1
  1518   1428   1411 1
  1519   1429   1413 1
  1520   1430   1419 1
  1521   1452   1437 1
  1522   1453   1437 1
  1523   1454   1438 1
  1524   1455   1440 1
  1525   1456   1442 1
  1526   1457   1442 1
  1527   1458   1443 1
  1528   1459   1450 1
  1529   1460   1451 1
  1530    858    846 1
  1531    859    846 1
  1532    923    911 1
  1533    924    911 1
  1534   1081   1069 1
  1535   1082   1069 1
  1536   1143   1131 1
  1537   1144   1131 1
  1538   1176   1164 1
  1539   1177   1164 1
  1540   1241   1229 1
  1541   1242   1229 1
  1542   1399   1387 1
  1543   1400   1387 1
  1544   1461   1449 1
  1545   1462   1449 1
  1546    955    941 1
  1547    956    941 1
  1548    987    973 1
  1549    988    973 1
  1550   1113   1099 1
  1551   1114   1099 1
  1552   1273   1259 1
  1553   1274   1259 1
  1554   1305   1291 1
  1555   1306   1291 1
  1556   1431   1417 1
  1557   1432   1417 1
  1558    889    878 1
  1559    890    878 1
  1560    891    878 1
  1561   1018   1007 1
  1562   1019   1007 1
  1563   1020   1007 1
  1564   1050   1039 1
  1565   1051   1039 1
  1566   1052   1039 1
  1567   1207   1196 1
  1568   1208   1196 1
  1569   1209   1196 1
  1570   1336   1325 1
  1571   1337   1325 1
  1572   1338   1325 1
  1573   1368   1357 1
  1574   1369   1357 1
  1575   1370   1357 1
  1576   1123   1463 1
  1577   1145   2077 1
  1578   1471   1496 1
  1579   1504   1528 1
  1580   1536   1561 1
  1581   1569   1593 1
  1582   1601   1625 1
  1583   1633   1657 1
  1584   1665   1689 1
  1585   1697   1719 1
  1586   1727   1751 1
  1587   1789   1814 1
  1588   1822   1846 1
  1589   1854   1879 1
  1590   1887   1911 1
  1591   1919   1943 1
  1592   1951   1975 1
  1593   1983   2007 1
  1594   2015   2037 1
  1595   2045   2069 1
  1596   1463   1464 1
  1597   1463   1465 1
  1598   1463   1466 1
  1599   1466   1467 1
  1600   1467   1468 1
  1601   1468   1469 1
  1602   1468   1470 1
  1603   1469   1473 1
  1604   1470   1471 1
  1605   1470   1472 1
  1606   1472   1473 1
  1607   1473   1474 1
  1608   1474   1475 ar
  1609   1474   1484 ar
  1610   1475   1476 ar
  1611   1476   1477 ar
  1612   1477   1478 1
  1613   1477   1484 ar
  1614   1478   1479 2
  1615   1478   1480 am
  1616   1480   1481 1
  1617   1481   1482 2
  1618   1481   1483 2
  1619   1483   1484 1
  1620   1496   1497 1
  1621   1496   1498 1
  1622   1496   1499 1
  1623   1499   1500 1
  1624   1500   1501 1
  1625   1501   1502 1
  1626   1501   1503 1
  1627   1502   1506 1
  1628   1503   1504 1
  1629   1503   1505 1
  1630   1505   1506 1
  1631   1506   1507 1
  1632   1507   1508 am
  1633   1507   1515 1
  1634   1508   1509 2
  1635   1508   1510 am
  1636   1510   1511 am
  1637   1511   1512 2
  1638   1511   1513 1
  1639   1513   1514 1
  1640   1513   1515 2
  1641   1528   1529 1
  1642   1528   1530 1
  1643   1528   1531 1
  1644   1531   1532 1
  1645   1532   1533 1
  1646   1533   1534 1
  1647   1533   1535 1
  1648   1534   1538 1
  1649   1535   1536 1
  1650   1535   1537 1
  1651   1537   1538 1
  1652   1538   1539 1
  1653   1539   1540 ar
  1654   1539   1549 ar
  1655   1540   1541 ar
  1656   1541   1542 ar
  1657   1542   1543 1
  1658   1542   1549 ar
  1659   1543   1544 2
  1660   1543   1545 am
  1661   1545   1546 1
  1662   1546   1547 2
  1663   1546   1548 2
  1664   1548   1549 1
  1665   1561   1562 1
  1666   1561   1563 1
  1667   1561   1564 1
  1668   1564   1565 1
  1669   1565   1566 1
  1670   1566   1567 1
  1671   1566   1568 1
  1672   1567   1571 1
  1673   1568   1569 1
  1674   1568   1570 1
  1675   1570   1571 1
  1676   1571   1572 1
  1677   1572   1573 ar
  1678   1572   1581 ar
  1679   1573   1574 ar
  1680   1574   1575 ar
  1681   1575   1576 ar
  1682   1575   1581 ar
  1683   1576   1577 1
  1684   1576   1578 ar
  1685   1578   1579 ar
  1686   1579   1580 ar
  1687   1580   1581 ar
  1688   1593   1594 1
  1689   1593   1595 1
  1690   1593   1596 1
  1691   1596   1597 1
  1692   1597   1598 1
  1693   1598   1599 1
  1694   1598   1600 1
  1695   1599   1603 1
  1696   1600   1601 1
  1697   1600   1602 1
  1698   1602   1603 1
  1699   1603   1604 1
  1700   1604   1605 ar
  1701   1604   1613 ar
  1702   1605   1606 ar
  1703   1606   1607 ar
  1704   1607   1608 ar
  1705   1607   1613 ar
  1706   1608   1609 1
  1707   1608   1610 ar
  1708   1610   1611 ar
  1709   1611   1612 ar
  1710   1612   1613 ar
  1711   1625   1626 1
  1712   1625   1627 1
  1713   1625   1628 1
  1714   1628   1629 1
  1715   1629   1630 1
  1716   1630   1631 1
  1717   1630   1632 1
  1718   1631   1635 1
  1719   1632   1633 1
  1720   1632   1634 1
  1721   1634   1635 1
  1722   1635   1636 1
  1723   1636   1637 am
  1724   1636   1644 1
  1725   1637   1638 2
  1726   1637   1639 am
  1727   1639   1640 am
  1728   1640   1641 2
  1729   1640   1642 1
  1730   1642   1643 1
  1731   1642   1644 2
  1732   1657   1658 1
  1733   1657   1659 1
  1734   1657   1660 1
  1735   1660   1661 1
  1736   1661   1662 1
  1737   1662   1663 1
  1738   1662   1664 1
  1739   1663   1667 1
  1740   1664   1665 1
  1741   1664   1666 1
  1742   1666   1667 1
  1743   1667   1668 1
  1744   1668   1669 am
  1745   1668   1676 1
  1746   1669   1670 2
  1747   1669   1671 am
  1748   1671   1672 am
  1749   1672   1673 2
  1750   1672   1674 1
  1751   1674   1675 1
  1752   1674   1676 2
  1753   1689   1690 1
  1754   1689   1691 1
  1755   1689   1692 1
  1756   1692   1693 1
  1757   1693   1694 1
  1758   1694   1695 1
  1759   1694   1696 1
  1760   1695   1699 1
  1761   1696   1697 1
  1762   1696   1698 1
  1763   1698   1699 1
  1764   1699   1700 1
  1765   1700   1701 am
  1766   1700   1707 1
  1767   1701   1702 2
  1768   1701   1703 1
  1769   1703   1704 2
  1770   1704   1705 2
  1771   1704   1706 2
  1772   1706   1707 2
  1773   1719   1720 1
  1774   1719   1721 1
  1775   1719   1722 1
  1776   1722   1723 1
  1777   1723   1724 1
  1778   1724   1725 1
  1779   1724   1726 1
  1780   1725   1729 1
  1781   1726   1727 1
  1782   1726   1728 1
  1783   1728   1729 1
  1784   1729   1730 1
  1785   1730   1731 ar
  1786   1730   1739 ar
  1787   1731   1732 ar
  1788   1732   1733 ar
  1789   1733   1734 ar
  1790   1733   1739 ar
  1791   1734   1735 1
  1792   1734   1736 ar
  1793   1736   1737 ar
  1794   1737   1738 ar
  1795   1738   1739 ar
  1796   1751   1752 1
  1797   1751   1753 1
  1798   1751   1754 1
  1799   1754   1755 1
  1800   1755   1756 1
  1801   1756   1757 1
  1802   1756   1758 1
  1803   1757   1761 1
  1804   1758   1759 1
  1805   1758   1760 1
  1806   1760   1761 1
  1807   1761   1762 1
  1808   1762   1763 am
  1809   1762   1769 1
  1810   1763   1764 2
  1811   1763   1765 1
  1812   1765   1766 2
  1813   1766   1767 2
  1814   1766   1768 2
  1815   1768   1769 2
  1816   1781   1782 1
  1817   1781   1783 1
  1818   1781   1784 1
  1819   1784   1785 1
  1820   1785   1786 1
  1821   1786   1787 1
  1822   1786   1788 1
  1823   1787   1791 1
  1824   1788   1789 1
  1825   1788   1790 1
  1826   1790   1791 1
  1827   1791   1792 1
  1828   1792   1793 ar
  1829   1792   1802 ar
  1830   1793   1794 ar
  1831   1794   1795 ar
  1832   1795   1796 1
  1833   1795   1802 ar
  1834   1796   1797 2
  1835   1796   1798 am
  1836   1798   1799 1
  1837   1799   1800 2
  1838   1799   1801 2
  1839   1801   1802 1
  1840   1814   1815 1
  1841   1814   1816 1
  1842   1814   1817 1
  1843   1817   1818 1
  1844   1818   1819 1
  1845   1819   1820 1
  1846   1819   1821 1
  1847   1820   1824 1
  1848   1821   1822 1
  1849   1821   1823 1
  1850   1823   1824 1
  1851   1824   1825 1
  1852   1825   1826 am
  1853   1825   1833 1
  1854   1826   1827 2
  1855   1826   1828 am
  1856   1828   1829 am
  1857   1829   1830 2
  1858   1829   1831 1
  1859   1831   1832 1
  1860   1831   1833 2
  1861   1846   1847 1
  1862   1846   1848 1
  1863   1846   1849 1
  1864   1849   1850 1
  1865   1850   1851 1
  1866   1851   1852 1
  1867   1851   1853 1
  1868   1852   1856 1
  1869   1853   1854 1
  1870   1853   1855 1
  1871   1855   1856 1
  1872   1856   1857 1
  1873   1857   1858 ar
  1874   1857   1867 ar
  1875   1858   1859 ar
  1876   1859   1860 ar
  1877   1860   1861 1
  1878   1860   1867 ar
  1879   1861   1862 2
  1880   1861   1863 am
  1881   1863   1864 1
  1882   1864   1865 2
  1883   1864   1866 2
  1884   1866   1867 1
  1885   1879   1880 1
  1886   1879   1881 1
  1887   1879   1882 1
  1888   1882   1883 1
  1889   1883   1884 1
  1890   1884   1885 1
  1891   1884   1886 1
  1892   1885   1889 1
  1893   1886   1887 1
  1894   1886   1888 1
  1895   1888   1889 1
  1896   1889   1890 1
  1897   1890   1891 ar
  1898   1890   1899 ar
  1899   1891   1892 ar
  1900   1892   1893 ar
  1901   1893   1894 ar
  1902   1893   1899 ar
  1903   1894   1895 1
  1904   1894   1896 ar
  1905   1896   1897 ar
  1906   1897   1898 ar
  1907   1898   1899 ar
  1908   1911   1912 1
  1909   1911   1913 1
  1910   1911   1914 1
  1911   1914   1915 1
  1912   1915   1916 1
  1913   1916   1917 1
  1914   1916   1918 1
  1915   1917   1921 1
  1916   1918   1919 1
  1917   1918   1920 1
  1918   1920   1921 1
  1919   1921   1922 1
  1920   1922   1923 ar
  1921   1922   1931 ar
  1922   1923   1924 ar
  1923   1924   1925 ar
  1924   1925   1926 ar
  1925   1925   1931 ar
  1926   1926   1927 1
  1927   1926   1928 ar
  1928   1928   1929 ar
  1929   1929   1930 ar
  1930   1930   1931 ar
  1931   1943   1944 1
  1932   1943   1945 1
  1933   1943   1946 1
  1934   1946   1947 1
  1935   1947   1948 1
  1936   1948   1949 1
  1937   1948   1950 1
  1938   1949   1953 1
  1939   1950   1951 1
  1940   1950   1952 1
  1941   1952   1953 1
  1942   1953   1954 1
  1943   1954   1955 am
  1944   1954   1962 1
  1945   1955   1956 2
  1946   1955   1957 am
  1947   1957   1958 am
  1948   1958   1959 2
  1949   1958   1960 1
  1950   1960   1961 1
  1951   1960   1962 2
  1952   1975   1976 1
  1953   1975   1977 1
  1954   1975   1978 1
  1955   1978   1979 1
  1956   1979   1980 1
  1957   1980   1981 1
  1958   1980   1982 1
  1959   1981   1985 1
  1960   1982   1983 1
  1961   1982   1984 1
  1962   1984   1985 1
  1963   1985   1986 1
  1964   1986   1987 am
  1965   1986   1994 1
  1966   1987   1988 2
  1967   1987   1989 am
  1968   1989   1990 am
  1969   1990   1991 2
  1970   1990   1992 1
  1971   1992   1993 1
  1972   1992   1994 2
  1973   2007   2008 1
  1974   2007   2009 1
  1975   2007   2010 1
  1976   2010   2011 1
  1977   2011   2012 1
  1978   2012   2013 1
  1979   2012   2014 1
  1980   2013   2017 1
  1981   2014   2015 1
  1982   2014   2016 1
  1983   2016   2017 1
  1984   2017   2018 1
  1985   2018   2019 am
  1986   2018   2025 1
  1987   2019   2020 2
  1988   2019   2021 1
  1989   2021   2022 2
  1990   2022   2023 2
  1991   2022   2024 2
  1992   2024   2025 2
  1993   2037   2038 1
  1994   2037   2039 1
  1995   2037   2040 1
  1996   2040   2041 1
  1997   2041   2042 1
  1998   2042   2043 1
  1999   2042   2044 1
  2000   2043   2047 1
  2001   2044   2045 1
  2002   2044   2046 1
  2003   2046   2047 1
  2004   2047   2048 1
  2005   2048   2049 ar
  2006   2048   2057 ar
  2007   2049   2050 ar
  2008   2050   2051 ar
  2009   2051   2052 ar
  2010   2051   2057 ar
  2011   2052   2053 1
  2012   2052   2054 ar
  2013   2054   2055 ar
  2014   2055   2056 ar
  2015   2056   2057 ar
  2016   2069   2070 1
  2017   2069   2071 1
  2018   2069   2072 1
  2019   2072   2073 1
  2020   2073   2074 1
  2021   2074   2075 1
  2022   2074   2076 1
  2023   2075   2079 1
  2024   2076   2077 1
  2025   2076   2078 1
  2026   2078   2079 1
  2027   2079   2080 1
  2028   2080   2081 am
  2029   2080   2087 1
  2030   2081   2082 2
  2031   2081   2083 1
  2032   2083   2084 2
  2033   2084   2085 2
  2034   2084   2086 2
  2035   2086   2087 2
  2036   1485   1467 1
  2037   1486   1467 1
  2038   1487   1468 1
  2039   1488   1470 1
  2040   1489   1472 1
  2041   1490   1472 1
  2042   1491   1473 1
  2043   1492   1475 1
  2044   1493   1480 1
  2045   1516   1500 1
  2046   1517   1500 1
  2047   1518   1501 1
  2048   1519   1503 1
  2049   1520   1505 1
  2050   1521   1505 1
  2051   1522   1506 1
  2052   1523   1510 1
  2053   1524   1515 1
  2054   1550   1532 1
  2055   1551   1532 1
  2056   1552   1533 1
  2057   1553   1535 1
  2058   1554   1537 1
  2059   1555   1537 1
  2060   1556   1538 1
  2061   1557   1540 1
  2062   1558   1545 1
  2063   1582   1565 1
  2064   1583   1565 1
  2065   1584   1566 1
  2066   1585   1568 1
  2067   1586   1570 1
  2068   1587   1570 1
  2069   1588   1571 1
  2070   1589   1573 1
  2071   1590   1579 1
  2072   1614   1597 1
  2073   1615   1597 1
  2074   1616   1598 1
  2075   1617   1600 1
  2076   1618   1602 1
  2077   1619   1602 1
  2078   1620   1603 1
  2079   1621   1605 1
  2080   1622   1611 1
  2081   1645   1629 1
  2082   1646   1629 1
  2083   1647   1630 1
  2084   1648   1632 1
  2085   1649   1634 1
  2086   1650   1634 1
  2087   1651   1635 1
  2088   1652   1639 1
  2089   1653   1644 1
  2090   1677   1661 1
  2091   1678   1661 1
  2092   1679   1662 1
  2093   1680   1664 1
  2094   1681   1666 1
  2095   1682   1666 1
  2096   1683   1667 1
  2097   1684   1671 1
  2098   1685   1676 1
  2099   1708   1693 1
  2100   1709   1693 1
  2101   1710   1694 1
  2102   1711   1696 1
  2103   1712   1698 1
  2104   1713   1698 1
  2105   1714   1699 1
  2106   1715   1706 1
  2107   1716   1707 1
  2108   1740   1723 1
  2109   1741   1723 1
  2110   1742   1724 1
  2111   1743   1726 1
  2112   1744   1728 1
  2113   1745   1728 1
  2114   1746   1729 1
  2115   1747   1731 1
  2116   1748   1737 1
  2117   1770   1755 1
  2118   1771   1755 1
  2119   1772   1756 1
  2120   1773   1758 1
  2121   1774   1760 1
  2122   1775   1760 1
  2123   1776   1761 1
  2124   1777   1768 1
  2125   1778   1769 1
  2126   1803   1785 1
  2127   1804   1785 1
  2128   1805   1786 1
  2129   1806   1788 1
  2130   1807   1790 1
  2131   1808   1790 1
  2132   1809   1791 1
  2133   1810   1793 1
  2134   1811   1798 1
  2135   1834   1818 1
  2136   1835   1818 1
  2137   1836   1819 1
  2138   1837   1821 1
  2139   1838   1823 1
  2140   1839   1823 1
  2141   1840   1824 1
  2142   1841   1828 1
  2143   1842   1833 1
  2144   1868   1850 1
  2145   1869   1850 1
  2146   1870   1851 1
  2147   1871   1853 1
  2148   1872   1855 1
  2149   1873   1855 1
  2150   1874   1856 1
  2151   1875   1858 1
  2152   1876   1863 1
  2153   1900   1883 1
  2154   1901   1883 1
  2155   1902   1884 1
  2156   1903   1886 1
  2157   1904   1888 1
  2158   1905   1888 1
  2159   1906   1889 1
  2160   1907   1891 1
  2161   1908   1897 1
  2162   1932   1915 1
  2163   1933   1915 1
  2164   1934   1916 1
  2165   1935   1918 1
  2166   1936   1920 1
  2167   1937   1920 1
  2168   1938   1921 1
  2169   1939   1923 1
  2170   1940   1929 1
  2171   1963   1947 1
  2172   1964   1947 1
  2173   1965   1948 1
  2174   1966   1950 1
  2175   1967   1952 1
  2176   1968   1952 1
  2177   1969   1953 1
  2178   1970   1957 1
  2179   1971   1962 1
  2180   1995   1979 1
  2181   1996   1979 1
  2182   1997   1980 1
  2183   1998   1982 1
  2184   1999   1984 1
  2185   2000   1984 1
  2186   2001   1985 1
  2187   2002   1989 1
  2188   2003   1994 1
  2189   2026   2011 1
  2190   2027   2011 1
  2191   2028   2012 1
  2192   2029   2014 1
  2193   2030   2016 1
  2194   2031   2016 1
  2195   2032   2017 1
  2196   2033   2024 1
  2197   2034   2025 1
  2198   2058   2041 1
  2199   2059   2041 1
  2200   2060   2042 1
  2201   2061   2044 1
  2202   2062   2046 1
  2203   2063   2046 1
  2204   2064   2047 1
  2205   2065   2049 1
  2206   2066   2055 1
  2207   2088   2073 1
  2208   2089   2073 1
  2209   2090   2074 1
  2210   2091   2076 1
  2211   2092   2078 1
  2212   2093   2078 1
  2213   2094   2079 1
  2214   2095   2086 1
  2215   2096   2087 1
  2216   1494   1482 1
  2217   1495   1482 1
  2218   1559   1547 1
  2219   1560   1547 1
  2220   1717   1705 1
  2221   1718   1705 1
  2222   1779   1767 1
  2223   1780   1767 1
  2224   1812   1800 1
  2225   1813   1800 1
  2226   1877   1865 1
  2227   1878   1865 1
  2228   2035   2023 1
  2229   2036   2023 1
  2230   2097   2085 1
  2231   2098   2085 1
  2232   1591   1577 1
  2233   1592   1577 1
  2234   1623   1609 1
  2235   1624   1609 1
  2236   1749   1735 1
  2237   1750   1735 1
  2238   1909   1895 1
  2239   1910   1895 1
  2240   1941   1927 1
  2241   1942   1927 1
  2242   2067   2053 1
  2243   2068   2053 1
  2244   1525   1514 1
  2245   1526   1514 1
  2246   1527   1514 1
  2247   1654   1643 1
  2248   1655   1643 1
  2249   1656   1643 1
  2250   1686   1675 1
  2251   1687   1675 1
  2252   1688   1675 1
  2253   1843   1832 1
  2254   1844   1832 1
  2255   1845   1832 1
  2256   1972   1961 1
  2257   1973   1961 1
  2258   1974   1961 1
  2259   2004   1993 1
  2260   2005   1993 1
  2261   2006   1993 1
@<TRIPOS>MOLECULE
dna-seg-18-bp34
2162 2330 1 0 0
BIOPOLYMER
NO_CHARGES


@<TRIPOS>ATOM
      1 P         -5.0510    -8.6527  1959.7767 P.3      601 DG      0.0000
      2 OP1       -6.3184    -9.4242  1959.7751 O.co2    601 DG      0.0000
      3 OP2       -5.2059    -7.5482  1960.8324 O.co2    601 DG      0.0000
      4 O5'       -3.7049    -9.4820  1959.9551 O.3      601 DG      0.0000
      5 C5'       -2.7417    -9.8764  1958.9551 C.3      601 DG      0.0000
      6 C4'       -1.3626    -9.4980  1959.4539 C.3      601 DG      0.0000
      7 O4'       -0.9829    -8.2051  1959.0347 O.3      601 DG      0.0000
      8 C3'       -1.1066    -9.5617  1960.9461 C.3      601 DG      0.0000
      9 O3'        0.0469   -10.3884  1961.2581 O.3      601 DG      0.0000
     10 C2'       -0.9395    -8.1142  1961.3680 C.3      601 DG      0.0000
     11 C1'       -0.4509    -7.4335  1960.1123 C.3      601 DG      0.0000
     12 N9        -0.9140    -6.0342  1960.0832 N.ar     601 DG      0.0000
     13 C8        -2.1711    -5.5267  1960.3121 C.ar     601 DG      0.0000
     14 N7        -2.2460    -4.2180  1960.2224 N.ar     601 DG      0.0000
     15 C5        -0.9460    -3.8329  1959.9054 C.ar     601 DG      0.0000
     16 C6        -0.3673    -2.5596  1959.6795 C.2      601 DG      0.0000
     17 O6        -0.9169    -1.4579  1959.7008 O.2      601 DG      0.0000
     18 N1         0.9714    -2.5700  1959.3980 N.am     601 DG      0.0000
     19 C2         1.6718    -3.6571  1959.3373 C.2      601 DG      0.0000
     20 N2         2.8842    -3.3905  1959.0405 N.pl3    601 DG      0.0000
     21 N3         1.1943    -4.9549  1959.5461 N.2      601 DG      0.0000
     22 C4        -0.1183    -4.9367  1959.8186 C.ar     601 DG      0.0000
     23 H5'       -2.7942   -10.9535  1958.7964 H        601 DG      0.0000
     24 H5''      -2.9494    -9.3567  1958.0197 H        601 DG      0.0000
     25 H4'       -0.6632   -10.1929  1958.9892 H        601 DG      0.0000
     26 H3'       -1.9852    -9.9766  1961.4400 H        601 DG      0.0000
     27 H2'       -1.8897    -7.6921  1961.6949 H        601 DG      0.0000
     28 H2''      -0.1946    -8.0323  1962.1594 H        601 DG      0.0000
     29 H1'        0.6383    -7.4603  1960.0804 H        601 DG      0.0000
     30 H8        -3.0224    -6.1492  1960.5452 H        601 DG      0.0000
     31 H1         1.4348    -1.6885  1959.2296 H        601 DG      0.0000
     32 H21        3.1699    -2.4326  1958.8962 H        601 DG      0.0000
     33 H22        3.5580    -4.1375  1958.9501 H        601 DG      0.0000
     34 P          0.7187   -10.4107  1962.6866 P.3      602 DT      0.0000
     35 OP1        1.1557   -11.7589  1963.1983 O.co2    602 DT      0.0000
     36 OP2       -0.4474   -10.0029  1963.6053 O.co2    602 DT      0.0000
     37 O5'        1.8005    -9.3009  1962.7152 O.3      602 DT      0.0000
     38 C5'        3.2217    -9.5728  1962.5712 C.3      602 DT      0.0000
     39 C4'        3.8789    -8.2097  1962.6287 C.3      602 DT      0.0000
     40 O4'        2.9691    -7.1673  1962.3535 O.3      602 DT      0.0000
     41 C3'        4.5138    -7.8262  1963.9414 C.3      602 DT      0.0000
     42 O3'        5.9319    -7.7098  1963.7532 O.3      602 DT      0.0000
     43 C2'        3.8874    -6.4882  1964.3337 C.3      602 DT      0.0000
     44 C1'        3.4882    -5.9586  1962.9809 C.3      602 DT      0.0000
     45 N1         2.3814    -5.0067  1963.0775 N.am     602 DT      0.0000
     46 C2         2.6689    -3.6834  1962.8796 C.2      602 DT      0.0000
     47 O2         3.8063    -3.2837  1962.6414 O.2      602 DT      0.0000
     48 N3         1.6264    -2.8000  1962.9607 N.am     602 DT      0.0000
     49 C4         0.3554    -3.1844  1963.2166 C.2      602 DT      0.0000
     50 O4        -0.4961    -2.2584  1963.2619 O.2      602 DT      0.0000
     51 C5         0.0731    -4.5740  1963.4163 C.2      602 DT      0.0000
     52 C7        -1.3184    -5.0407  1963.6962 C.3      602 DT      0.0000
     53 C6         1.0989    -5.4309  1963.3348 C.2      602 DT      0.0000
     54 H5'        3.5767   -10.2056  1963.3846 H        602 DT      0.0000
     55 H5''       3.4198   -10.0472  1961.6100 H        602 DT      0.0000
     56 H4'        4.6553    -8.1830  1961.8642 H        602 DT      0.0000
     57 H3'        4.2958    -8.5794  1964.6985 H        602 DT      0.0000
     58 H2'        3.0222    -6.6250  1964.9825 H        602 DT      0.0000
     59 H2''       4.6251    -5.8373  1964.8029 H        602 DT      0.0000
     60 H1'        4.3371    -5.5460  1962.4356 H        602 DT      0.0000
     61 H3         1.8148    -1.8173  1962.8232 H        602 DT      0.0000
     62 H6         0.9136    -6.4857  1963.4752 H        602 DT      0.0000
     63 H71       -1.7473    -5.4698  1962.7906 H        602 DT      0.0000
     64 H72       -1.9262    -4.1962  1964.0209 H        602 DT      0.0000
     65 H73       -1.2971    -5.7964  1964.4815 H        602 DT      0.0000
     66 P          6.7888    -8.2326  1965.0332 P.3      603 DG      0.0000
     67 OP1        7.9759    -8.8653  1964.3181 O.co2    603 DG      0.0000
     68 OP2        5.9816    -9.1754  1965.7867 O.co2    603 DG      0.0000
     69 O5'        7.0930    -6.7493  1965.6427 O.3      603 DG      0.0000
     70 C5'        7.5275    -5.8520  1964.5521 C.3      603 DG      0.0000
     71 C4'        7.4747    -4.4457  1965.0721 C.3      603 DG      0.0000
     72 O4'        6.2669    -3.7558  1964.8916 O.3      603 DG      0.0000
     73 C3'        7.8150    -4.3590  1966.5802 C.3      603 DG      0.0000
     74 O3'        8.8921    -3.4041  1966.7390 O.3      603 DG      0.0000
     75 C2'        6.4967    -4.0014  1967.2327 C.3      603 DG      0.0000
     76 C1'        5.8340    -3.1562  1966.1512 C.3      603 DG      0.0000
     77 N9         4.3771    -3.1183  1966.3207 N.ar     603 DG      0.0000
     78 C8         3.5281    -4.1365  1966.6569 C.ar     603 DG      0.0000
     79 N7         2.2628    -3.7893  1966.7427 N.ar     603 DG      0.0000
     80 C5         2.2877    -2.4362  1966.4126 C.ar     603 DG      0.0000
     81 C6         1.2354    -1.4810  1966.3183 C.2      603 DG      0.0000
     82 O6         0.0229    -1.6555  1966.5106 O.2      603 DG      0.0000
     83 N1         1.6480    -0.2117  1965.9833 N.am     603 DG      0.0000
     84 C2         2.9580     0.0846  1965.7595 C.2      603 DG      0.0000
     85 N2         3.1749     1.3698  1965.4507 N.pl3    603 DG      0.0000
     86 N3         3.9749    -0.7713  1965.8305 N.2      603 DG      0.0000
     87 C4         3.5740    -2.0120  1966.1571 C.ar     603 DG      0.0000
     88 H5'        8.5458    -6.0989  1964.2516 H        603 DG      0.0000
     89 H5''       6.8561    -5.9554  1963.6997 H        603 DG      0.0000
     90 H4'        8.2429    -3.8830  1964.5416 H        603 DG      0.0000
     91 H3'        8.1418    -5.3365  1966.9349 H        603 DG      0.0000
     92 H2'        5.9096    -4.8923  1967.4557 H        603 DG      0.0000
     93 H2''       6.6608    -3.4124  1968.1352 H        603 DG      0.0000
     94 H1'        6.2227    -2.1396  1966.2101 H        603 DG      0.0000
     95 H8         3.8697    -5.1450  1966.8376 H        603 DG      0.0000
     96 H1         0.9587     0.5220  1965.9009 H        603 DG      0.0000
     97 H21        2.3994     2.0150  1965.4005 H        603 DG      0.0000
     98 H22        4.1140     1.6938  1965.2680 H        603 DG      0.0000
     99 P          9.5654    -3.1536  1968.1274 P.3      604 DA      0.0000
    100 OP1       10.7242    -4.0276  1968.4828 O.co2    604 DA      0.0000
    101 OP2        8.3490    -3.5918  1969.0232 O.co2    604 DA      0.0000
    102 O5'        9.6797    -1.5917  1968.3766 O.3      604 DA      0.0000
    103 C5'        9.6897    -0.5913  1967.3475 C.3      604 DA      0.0000
    104 C4'        8.7225     0.4813  1967.8218 C.3      604 DA      0.0000
    105 O4'        7.3921     0.0184  1967.7315 O.3      604 DA      0.0000
    106 C3'        8.9208     0.9869  1969.2509 C.3      604 DA      0.0000
    107 O3'        8.8915     2.4282  1969.3032 O.3      604 DA      0.0000
    108 C2'        7.7425     0.3367  1969.9863 C.3      604 DA      0.0000
    109 C1'        6.6779     0.4758  1968.9087 C.3      604 DA      0.0000
    110 N9         5.4931    -0.3574  1969.1372 N.ar     604 DA      0.0000
    111 C8         5.3940    -1.7027  1969.3529 C.ar     604 DA      0.0000
    112 N7         4.1608    -2.1264  1969.5179 N.ar     604 DA      0.0000
    113 C5         3.3936    -0.9797  1969.3777 C.ar     604 DA      0.0000
    114 C6         1.9970    -0.7765  1969.4256 C.ar     604 DA      0.0000
    115 N6         1.1009    -1.7415  1969.6454 N.pl3    604 DA      0.0000
    116 N1         1.5892     0.5136  1969.2358 N.ar     604 DA      0.0000
    117 C2         2.4812     1.5074  1969.0181 C.ar     604 DA      0.0000
    118 N3         3.8073     1.3908  1968.9598 N.ar     604 DA      0.0000
    119 C4         4.1907     0.1147  1969.1467 C.ar     604 DA      0.0000
    120 H5'        9.3555    -1.0147  1966.4003 H        604 DA      0.0000
    121 H5''      10.6906    -0.1733  1967.2397 H        604 DA      0.0000
    122 H4'        8.8216     1.3355  1967.1520 H        604 DA      0.0000
    123 H3'        9.8639     0.6161  1969.6523 H        604 DA      0.0000
    124 H2'        7.9405    -0.7066  1970.2318 H        604 DA      0.0000
    125 H2''       7.4750     0.9049  1970.8772 H        604 DA      0.0000
    126 H1'        6.3894     1.5207  1968.7942 H        604 DA      0.0000
    127 H8         6.2514    -2.3586  1969.3850 H        604 DA      0.0000
    128 H2         2.0761     2.4986  1968.8767 H        604 DA      0.0000
    129 H61        1.2799    -2.7307  1969.5480 H        604 DA      0.0000
    130 H62        0.1265    -1.5386  1969.4739 H        604 DA      0.0000
    131 P          9.7068     3.2830  1970.4446 P.3      605 DA      0.0000
    132 OP1       10.7287     4.1697  1969.7776 O.co2    605 DA      0.0000
    133 OP2       10.2592     2.1939  1971.2755 O.co2    605 DA      0.0000
    134 O5'        8.5945     4.2961  1970.9755 O.3      605 DA      0.0000
    135 C5'        7.9563     5.2699  1970.1511 C.3      605 DA      0.0000
    136 C4'        6.5458     5.4790  1970.6734 C.3      605 DA      0.0000
    137 O4'        5.8313     4.2758  1970.7016 O.3      605 DA      0.0000
    138 C3'        6.3939     6.1227  1972.0407 C.3      605 DA      0.0000
    139 O3'        5.7285     7.3832  1971.9629 O.3      605 DA      0.0000
    140 C2'        5.6707     5.0539  1972.8695 C.3      605 DA      0.0000
    141 C1'        4.9578     4.2216  1971.8757 C.3      605 DA      0.0000
    142 N9         4.7016     2.7949  1972.1437 N.ar     605 DA      0.0000
    143 C8         5.5811     1.7458  1972.2589 C.ar     605 DA      0.0000
    144 N7         5.0057     0.5789  1972.4282 N.ar     605 DA      0.0000
    145 C5         3.6461     0.8714  1972.3912 C.ar     605 DA      0.0000
    146 C6         2.4947     0.0421  1972.5117 C.ar     605 DA      0.0000
    147 N6         2.5079    -1.2711  1972.7033 N.pl3    605 DA      0.0000
    148 N1         1.2870     0.6866  1972.4135 N.ar     605 DA      0.0000
    149 C2         1.2333     2.0371  1972.2244 C.ar     605 DA      0.0000
    150 N3         2.2647     2.8669  1972.1165 N.ar     605 DA      0.0000
    151 C4         3.4438     2.2197  1972.2084 C.ar     605 DA      0.0000
    152 H5'        7.9199     4.9152  1969.1211 H        605 DA      0.0000
    153 H5''       8.5081     6.2088  1970.1971 H        605 DA      0.0000
    154 H4'        6.0391     6.1297  1969.9607 H        605 DA      0.0000
    155 H3'        7.3861     6.2787  1972.4639 H        605 DA      0.0000
    156 H2'        6.3871     4.4531  1973.4298 H        605 DA      0.0000
    157 H2''       4.9586     5.5220  1973.5491 H        605 DA      0.0000
    158 H1'        4.0126     4.7054  1971.6296 H        605 DA      0.0000
    159 H8         6.6529     1.8707  1972.2141 H        605 DA      0.0000
    160 H2         0.2494     2.4769  1972.1552 H        605 DA      0.0000
    161 H61        3.3294    -1.7599  1973.0295 H        605 DA      0.0000
    162 H62        1.6678    -1.7998  1972.5165 H        605 DA      0.0000
    163 P          6.0190     8.6660  1972.9191 P.3      606 DT      0.0000
    164 OP1        6.0370     9.9653  1972.1218 O.co2    606 DT      0.0000
    165 OP2        7.1899     8.4376  1973.7397 O.co2    606 DT      0.0000
    166 O5'        4.5959     8.7991  1973.7328 O.3      606 DT      0.0000
    167 C5'        3.4701     8.5464  1972.7877 C.3      606 DT      0.0000
    168 C4'        2.5055     7.6967  1973.5755 C.3      606 DT      0.0000
    169 O4'        2.9449     6.3708  1973.7674 O.3      606 DT      0.0000
    170 C3'        2.2649     8.2504  1974.9920 C.3      606 DT      0.0000
    171 O3'        1.0669     9.0046  1974.9937 O.3      606 DT      0.0000
    172 C2'        2.2470     7.0154  1975.8893 C.3      606 DT      0.0000
    173 C1'        2.1232     5.9044  1974.9247 C.3      606 DT      0.0000
    174 N1         2.5998     4.5731  1975.2644 N.am     606 DT      0.0000
    175 C2         1.6377     3.5774  1975.4024 C.2      606 DT      0.0000
    176 O2         0.4502     3.8619  1975.3143 O.2      606 DT      0.0000
    177 N3         2.0579     2.3068  1975.6564 N.am     606 DT      0.0000
    178 C4         3.3774     1.9762  1975.7765 C.2      606 DT      0.0000
    179 O4         3.6888     0.7692  1976.0317 O.2      606 DT      0.0000
    180 C5         4.3514     3.0143  1975.6049 C.2      606 DT      0.0000
    181 C7         5.8190     2.6995  1975.6925 C.3      606 DT      0.0000
    182 C6         3.9317     4.2655  1975.3492 C.2      606 DT      0.0000
    183 H5'        3.0017     9.4833  1972.4861 H        606 DT      0.0000
    184 H5''       3.8258     8.0024  1971.9127 H        606 DT      0.0000
    185 H4'        1.5528     7.6728  1973.0463 H        606 DT      0.0000
    186 H3'        3.0982     8.8930  1975.2764 H        606 DT      0.0000
    187 H2'        3.1705     6.9348  1976.4627 H        606 DT      0.0000
    188 H2''       1.3848     7.0402  1976.5557 H        606 DT      0.0000
    189 H1'        1.0829     5.8321  1974.6073 H        606 DT      0.0000
    190 H3         1.3650     1.5792  1975.7601 H        606 DT      0.0000
    191 H6         4.6630     5.0475  1975.2070 H        606 DT      0.0000
    192 H71        5.9515     1.6388  1975.9055 H        606 DT      0.0000
    193 H72        6.2996     2.9422  1974.7447 H        606 DT      0.0000
    194 H73        6.2703     3.2894  1976.4903 H        606 DT      0.0000
    195 P          0.4971     9.9322  1976.1003 P.3      607 DT      0.0000
    196 OP1       -0.4887    10.9608  1975.4883 O.co2    607 DT      0.0000
    197 OP2        1.6670    10.5968  1976.7303 O.co2    607 DT      0.0000
    198 O5'       -0.4402     8.9758  1976.9827 O.3      607 DT      0.0000
    199 C5'       -1.6383     8.5649  1976.2709 C.3      607 DT      0.0000
    200 C4'       -2.2081     7.3666  1976.9471 C.3      607 DT      0.0000
    201 O4'       -1.3510     6.2320  1976.9237 O.3      607 DT      0.0000
    202 C3'       -2.6021     7.5933  1978.4137 C.3      607 DT      0.0000
    203 O3'       -3.8619     7.0056  1978.6777 O.3      607 DT      0.0000
    204 C2'       -1.4924     6.8058  1979.1500 C.3      607 DT      0.0000
    205 C1'       -1.4790     5.5897  1978.2465 C.3      607 DT      0.0000
    206 N1        -0.3484     4.7300  1978.5442 N.am     607 DT      0.0000
    207 C2        -0.5553     3.3612  1978.5990 C.2      607 DT      0.0000
    208 O2        -1.6906     2.9219  1978.4105 O.2      607 DT      0.0000
    209 N3         0.5161     2.5557  1978.8649 N.am     607 DT      0.0000
    210 C4         1.7654     3.0548  1979.0719 C.2      607 DT      0.0000
    211 O4         2.7118     2.2468  1979.2952 O.2      607 DT      0.0000
    212 C5         1.9674     4.4643  1979.0068 C.2      607 DT      0.0000
    213 C7         3.3153     5.0902  1979.2167 C.3      607 DT      0.0000
    214 C6         0.9041     5.2406  1978.7457 C.2      607 DT      0.0000
    215 H5'       -2.3679     9.3746  1976.2833 H        607 DT      0.0000
    216 H5''      -1.3845     8.3172  1975.2402 H        607 DT      0.0000
    217 H4'       -3.1161     7.0949  1976.4086 H        607 DT      0.0000
    218 H3'       -2.5878     8.6512  1978.6761 H        607 DT      0.0000
    219 H2'       -0.5388     7.3337  1979.1488 H        607 DT      0.0000
    220 H2''      -1.7984     6.5434  1980.1627 H        607 DT      0.0000
    221 H1'       -2.4166     5.0389  1978.3221 H        607 DT      0.0000
    222 H3         0.3762     1.5564  1978.9093 H        607 DT      0.0000
    223 H6         1.0431     6.3103  1978.6926 H        607 DT      0.0000
    224 H71        4.0513     4.3112  1979.4157 H        607 DT      0.0000
    225 H72        3.6030     5.6414  1978.3215 H        607 DT      0.0000
    226 H73        3.2706     5.7731  1980.0651 H        607 DT      0.0000
    227 P         -5.2294     7.4781  1979.2857 P.3      608 DC      0.0000
    228 OP1       -6.3004     7.5911  1978.2177 O.co2    608 DC      0.0000
    229 OP2       -4.9215     8.7185  1980.0206 O.co2    608 DC      0.0000
    230 O5'       -5.5442     6.1075  1980.1117 O.3      608 DC      0.0000
    231 C5'       -5.4169     5.0519  1979.0894 C.3      608 DC      0.0000
    232 C4'       -5.6226     3.7369  1979.7859 C.3      608 DC      0.0000
    233 O4'       -4.4253     3.0672  1980.0329 O.3      608 DC      0.0000
    234 C3'       -6.4296     3.8079  1981.0774 C.3      608 DC      0.0000
    235 O3'       -7.5634     2.9541  1980.9977 O.3      608 DC      0.0000
    236 C2'       -5.3600     3.4956  1982.1262 C.3      608 DC      0.0000
    237 C1'       -4.3942     2.6210  1981.4297 C.3      608 DC      0.0000
    238 N1        -2.9765     2.7940  1981.7619 N.am     608 DC      0.0000
    239 C2        -2.2644     1.6243  1982.0177 C.2      608 DC      0.0000
    240 O2        -2.8200     0.5215  1982.0221 O.2      608 DC      0.0000
    241 N3        -0.9245     1.7465  1982.2915 N.2      608 DC      0.0000
    242 C4        -0.3035     2.9608  1982.2816 C.2      608 DC      0.0000
    243 N4         0.9957     2.9755  1982.5584 N.pl3    608 DC      0.0000
    244 C5        -1.0349     4.1365  1982.0036 C.2      608 DC      0.0000
    245 C6        -2.3505     3.9999  1981.7388 C.2      608 DC      0.0000
    246 H5'       -6.1727     5.1876  1978.3158 H        608 DC      0.0000
    247 H5''      -4.4221     5.0843  1978.6452 H        608 DC      0.0000
    248 H4'       -6.1919     3.1097  1979.1000 H        608 DC      0.0000
    249 H3'       -6.7722     4.8327  1981.2207 H        608 DC      0.0000
    250 H2'       -4.8746     4.4112  1982.4641 H        608 DC      0.0000
    251 H2''      -5.8032     2.9697  1982.9717 H        608 DC      0.0000
    252 H1'       -4.6880     1.5745  1981.5107 H        608 DC      0.0000
    253 H5        -0.5599     5.1064  1982.0030 H        608 DC      0.0000
    254 H6        -2.9273     4.8811  1981.4997 H        608 DC      0.0000
    255 H41        1.4795     2.1116  1982.7576 H        608 DC      0.0000
    256 H42        1.4997     3.8507  1982.5697 H        608 DC      0.0000
    257 P         -8.8764     3.0083  1981.9498 P.3      609 DA      0.0000
    258 OP1      -10.0243     2.4146  1981.1560 O.co2    609 DA      0.0000
    259 OP2       -9.1255     4.4227  1982.2953 O.co2    609 DA      0.0000
    260 O5'       -8.4645     2.0830  1983.2468 O.3      609 DA      0.0000
    261 C5'       -7.9735     0.7396  1982.9516 C.3      609 DA      0.0000
    262 C4'       -7.5450     0.0530  1984.2068 C.3      609 DA      0.0000
    263 O4'       -6.1349     0.0551  1984.4490 O.3      609 DA      0.0000
    264 C3'       -8.0991     0.6482  1985.5121 C.3      609 DA      0.0000
    265 O3'       -7.9959    -0.3376  1986.5420 O.3      609 DA      0.0000
    266 C2'       -7.0720     1.7778  1985.7267 C.3      609 DA      0.0000
    267 C1'       -5.8204     0.9128  1985.5434 C.3      609 DA      0.0000
    268 N9        -4.6534     1.7735  1985.4491 N.ar     609 DA      0.0000
    269 C8        -4.5562     3.1325  1985.3332 C.ar     609 DA      0.0000
    270 N7        -3.3223     3.6040  1985.3146 N.ar     609 DA      0.0000
    271 C5        -2.5449     2.4595  1985.4222 C.ar     609 DA      0.0000
    272 C6        -1.1421     2.2648  1985.4567 C.ar     609 DA      0.0000
    273 N6        -0.2490     3.2343  1985.3714 N.pl3    609 DA      0.0000
    274 N1        -0.7172     0.9739  1985.5893 N.ar     609 DA      0.0000
    275 C2        -1.6087    -0.0626  1985.6694 C.ar     609 DA      0.0000
    276 N3        -2.9353     0.0401  1985.6396 N.ar     609 DA      0.0000
    277 C4        -3.3392     1.3283  1985.5166 C.ar     609 DA      0.0000
    278 H5'       -8.7690     0.1623  1982.4804 H        609 DA      0.0000
    279 H5''      -7.1253     0.8074  1982.2703 H        609 DA      0.0000
    280 H4'       -7.8721    -0.9851  1984.1479 H        609 DA      0.0000
    281 H3'       -9.1152     1.0261  1985.3984 H        609 DA      0.0000
    282 H2'       -7.1512     2.5640  1984.9759 H        609 DA      0.0000
    283 H2''      -7.1313     2.1838  1986.7366 H        609 DA      0.0000
    284 H1'       -5.7084     0.2931  1986.4330 H        609 DA      0.0000
    285 H8        -5.4232     3.7725  1985.2622 H        609 DA      0.0000
    286 H2        -1.1967    -1.0562  1985.7659 H        609 DA      0.0000
    287 H61        0.7430     3.2949  1985.5515 H        609 DA      0.0000
    288 H62       -0.6458     4.1081  1985.0567 H        609 DA      0.0000
    289 P         -9.0727    -1.5129  1986.6825 P.3      610 DC      0.0000
    290 OP1       -9.8594    -1.7408  1985.4374 O.co2    610 DC      0.0000
    291 OP2       -9.9195    -1.0323  1987.8253 O.co2    610 DC      0.0000
    292 O5'       -8.1803    -2.7927  1986.9656 O.3      610 DC      0.0000
    293 C5'       -7.5350    -3.5216  1985.8779 C.3      610 DC      0.0000
    294 C4'       -6.3011    -4.0964  1986.5829 C.3      610 DC      0.0000
    295 O4'       -5.4537    -3.0151  1986.8948 O.3      610 DC      0.0000
    296 C3'       -6.6185    -4.8129  1987.8928 C.3      610 DC      0.0000
    297 O3'       -6.0491    -6.1399  1987.9607 O.3      610 DC      0.0000
    298 C2'       -6.0803    -3.8648  1988.9750 C.3      610 DC      0.0000
    299 C1'       -4.9367    -3.2241  1988.2988 C.3      610 DC      0.0000
    300 N1        -4.5001    -1.8757  1988.6516 N.am     610 DC      0.0000
    301 C2        -3.1214    -1.6738  1988.6247 C.2      610 DC      0.0000
    302 O2        -2.3241    -2.5799  1988.4178 O.2      610 DC      0.0000
    303 N3        -2.6690    -0.4163  1988.8778 N.2      610 DC      0.0000
    304 C4        -3.5047     0.6244  1989.1112 C.2      610 DC      0.0000
    305 N4        -2.9421     1.8092  1989.3421 N.pl3    610 DC      0.0000
    306 C5        -4.9102     0.4084  1989.1178 C.2      610 DC      0.0000
    307 C6        -5.3493    -0.8349  1988.8683 C.2      610 DC      0.0000
    308 H5'       -8.1780    -4.3131  1985.4931 H        610 DC      0.0000
    309 H5''      -7.2406    -2.8411  1985.0789 H        610 DC      0.0000
    310 H4'       -5.7843    -4.7808  1985.9102 H        610 DC      0.0000
    311 H3'       -7.7007    -4.8890  1987.9987 H        610 DC      0.0000
    312 H2'       -6.8309    -3.1284  1989.2620 H        610 DC      0.0000
    313 H2''      -5.7440    -4.4284  1989.8452 H        610 DC      0.0000
    314 H1'       -4.0831    -3.9018  1988.2855 H        610 DC      0.0000
    315 H5        -5.5995     1.2159  1989.3163 H        610 DC      0.0000
    316 H6        -6.4136    -1.0158  1988.8386 H        610 DC      0.0000
    317 H41       -1.9364     1.9014  1989.3311 H        610 DC      0.0000
    318 H42       -3.5213     2.6155  1989.5283 H        610 DC      0.0000
    319 P          6.8460     5.0178  1990.9202 P.3      610 DG      0.0000
    320 OP1        8.0029     5.9488  1991.0989 O.co2    610 DG      0.0000
    321 OP2        5.8779     5.4710  1989.8354 O.co2    610 DG      0.0000
    322 O5'        7.4066     3.4842  1990.7129 O.3      610 DG      0.0000
    323 C5'        7.2697     2.5196  1991.8087 C.3      610 DG      0.0000
    324 C4'        6.9376     1.1710  1991.1744 C.3      610 DG      0.0000
    325 O4'        5.5550     0.9620  1991.0786 O.3      610 DG      0.0000
    326 C3'        7.4990     0.9789  1989.7681 C.3      610 DG      0.0000
    327 O3'        7.9988    -0.3519  1989.5011 O.3      610 DG      0.0000
    328 C2'        6.3001     1.3227  1988.8658 C.3      610 DG      0.0000
    329 C1'        5.1539     0.7599  1989.6896 C.3      610 DG      0.0000
    330 N9         3.8998     1.4824  1989.4163 N.ar     610 DG      0.0000
    331 C8         3.7213     2.8363  1989.2597 C.ar     610 DG      0.0000
    332 N7         2.4817     3.1868  1989.0413 N.ar     610 DG      0.0000
    333 C5         1.7896     1.9817  1989.0661 C.ar     610 DG      0.0000
    334 C6         0.4082     1.6904  1988.9096 C.2      610 DG      0.0000
    335 O6        -0.5027     2.5073  1988.7128 O.2      610 DG      0.0000
    336 N1         0.0987     0.3554  1988.9965 N.am     610 DG      0.0000
    337 C2         1.0347    -0.6001  1989.2172 C.2      610 DG      0.0000
    338 N2         0.5862    -1.8508  1989.2805 N.pl3    610 DG      0.0000
    339 N3         2.3456    -0.3799  1989.3749 N.2      610 DG      0.0000
    340 C4         2.6485     0.9301  1989.2916 C.ar     610 DG      0.0000
    341 H5'        8.2037     2.4514  1992.3665 H        610 DG      0.0000
    342 H5''       6.4621     2.8257  1992.4736 H        610 DG      0.0000
    343 H4'        7.3520     0.3893  1991.8111 H        610 DG      0.0000
    344 H3'        8.2960     1.7027  1989.5976 H        610 DG      0.0000
    345 H2'        6.2011     2.3987  1988.7231 H        610 DG      0.0000
    346 H2''       6.3769     0.8099  1987.9071 H        610 DG      0.0000
    347 H1'        5.0287    -0.3033  1989.4844 H        610 DG      0.0000
    348 H8         4.5330     3.5468  1989.3124 H        610 DG      0.0000
    349 H1        -0.8655     0.0739  1988.8917 H        610 DG      0.0000
    350 H21       -0.3991    -2.0405  1989.1654 H        610 DG      0.0000
    351 H22        1.2311    -2.6108  1989.4437 H        610 DG      0.0000
    352 P          7.8968    -0.8383  1987.9776 P.3      609 DT      0.0000
    353 OP1        8.9549    -1.8345  1987.5867 O.co2    609 DT      0.0000
    354 OP2        8.0913     0.4550  1987.2771 O.co2    609 DT      0.0000
    355 O5'        6.4434    -1.4999  1987.8467 O.3      609 DT      0.0000
    356 C5'        6.3461    -2.9355  1988.1144 C.3      609 DT      0.0000
    357 C4'        5.1560    -3.4836  1987.3573 C.3      609 DT      0.0000
    358 O4'        4.0590    -2.5879  1987.3300 O.3      609 DT      0.0000
    359 C3'        5.4684    -3.7986  1985.9026 C.3      609 DT      0.0000
    360 O3'        4.8232    -4.9920  1985.4075 O.3      609 DT      0.0000
    361 C2'        4.9909    -2.5587  1985.1797 C.3      609 DT      0.0000
    362 C1'        3.7124    -2.2953  1985.9578 C.3      609 DT      0.0000
    363 N1         3.4118    -0.8629  1985.8065 N.am     609 DT      0.0000
    364 C2         2.0727    -0.5013  1985.9133 C.2      609 DT      0.0000
    365 O2         1.2118    -1.3539  1986.1031 O.2      609 DT      0.0000
    366 N3         1.7734     0.8270  1985.7931 N.am     609 DT      0.0000
    367 C4         2.7365     1.7662  1985.5756 C.2      609 DT      0.0000
    368 O4         2.3605     2.9810  1985.4780 O.2      609 DT      0.0000
    369 C5         4.0990     1.3654  1985.4692 C.2      609 DT      0.0000
    370 C7         5.1699     2.3932  1985.2402 C.3      609 DT      0.0000
    371 C6         4.3855     0.0667  1985.5910 C.2      609 DT      0.0000
    372 H5'        7.2560    -3.4344  1987.7806 H        609 DT      0.0000
    373 H5''       6.2085    -3.1007  1989.1830 H        609 DT      0.0000
    374 H4'        4.8344    -4.4037  1987.8453 H        609 DT      0.0000
    375 H3'        6.5471    -3.8947  1985.7786 H        609 DT      0.0000
    376 H2'        5.6999    -1.7358  1985.2713 H        609 DT      0.0000
    377 H2''       4.7748    -2.7745  1984.1334 H        609 DT      0.0000
    378 H1'        2.8905    -2.9196  1985.6072 H        609 DT      0.0000
    379 H3         0.8101     1.1211  1985.8678 H        609 DT      0.0000
    380 H6         5.4138    -0.2550  1985.5168 H        609 DT      0.0000
    381 H71        4.7165     3.3820  1985.1715 H        609 DT      0.0000
    382 H72        5.8751     2.3740  1986.0711 H        609 DT      0.0000
    383 H73        5.6959     2.1693  1984.3121 H        609 DT      0.0000
    384 P          5.9836    -5.8876  1984.6291 P.3      608 DG      0.0000
    385 OP1        6.6194    -6.9214  1985.5003 O.co2    608 DG      0.0000
    386 OP2        6.8815    -4.7774  1984.2236 O.co2    608 DG      0.0000
    387 O5'        5.0862    -6.6499  1983.5483 O.3      608 DG      0.0000
    388 C5'        4.3032    -7.7947  1983.9718 C.3      608 DG      0.0000
    389 C4'        2.8812    -7.4808  1983.5240 C.3      608 DG      0.0000
    390 O4'        2.5862    -6.1251  1983.7947 O.3      608 DG      0.0000
    391 C3'        2.6218    -7.7181  1982.0363 C.3      608 DG      0.0000
    392 O3'        1.5415    -8.6102  1981.8278 O.3      608 DG      0.0000
    393 C2'        2.4403    -6.3253  1981.4596 C.3      608 DG      0.0000
    394 C1'        1.9391    -5.5358  1982.6457 C.3      608 DG      0.0000
    395 N9         2.2982    -4.1205  1982.5222 N.ar     608 DG      0.0000
    396 C8         3.5389    -3.5711  1982.3633 C.ar     608 DG      0.0000
    397 N7         3.5305    -2.2626  1982.2852 N.ar     608 DG      0.0000
    398 C5         2.1874    -1.9244  1982.4228 C.ar     608 DG      0.0000
    399 C6         1.5229    -0.6697  1982.4322 C.2      608 DG      0.0000
    400 O6         2.0353     0.4406  1982.3332 O.2      608 DG      0.0000
    401 N1         0.1672    -0.7456  1982.5812 N.am     608 DG      0.0000
    402 C2        -0.4866    -1.9467  1982.7141 C.2      608 DG      0.0000
    403 N2        -1.8112    -1.8768  1982.8497 N.pl3    608 DG      0.0000
    404 N3         0.0768    -3.1591  1982.7184 N.2      608 DG      0.0000
    405 C4         1.4201    -3.0678  1982.5677 C.ar     608 DG      0.0000
    406 H5'        4.6642    -8.7050  1983.4930 H        608 DG      0.0000
    407 H5''       4.3427    -7.8980  1985.0561 H        608 DG      0.0000
    408 H4'        2.1943    -8.1037  1984.0970 H        608 DG      0.0000
    409 H3'        3.5180    -8.1567  1981.5977 H        608 DG      0.0000
    410 H2'        3.3859    -5.9258  1981.0932 H        608 DG      0.0000
    411 H2''       1.6952    -6.3348  1980.6640 H        608 DG      0.0000
    412 H1'        0.8576    -5.6399  1982.7328 H        608 DG      0.0000
    413 H8         4.4425    -4.1599  1982.3072 H        608 DG      0.0000
    414 H1        -0.3718     0.1084  1982.5941 H        608 DG      0.0000
    415 H21       -2.2721    -0.9781  1982.8507 H        608 DG      0.0000
    416 H22       -2.3537    -2.7226  1982.9515 H        608 DG      0.0000
    417 P          0.2202    -8.5840  1980.9615 P.3      607 DA      0.0000
    418 OP1       -0.9362    -9.2206  1981.7428 O.co2    607 DA      0.0000
    419 OP2        0.5289    -9.3761  1979.7688 O.co2    607 DA      0.0000
    420 O5'       -0.1781    -7.0140  1980.7867 O.3      607 DA      0.0000
    421 C5'       -0.9508    -6.5171  1981.9431 C.3      607 DA      0.0000
    422 C4'       -2.3064    -6.1172  1981.4153 C.3      607 DA      0.0000
    423 O4'       -2.4100    -4.7337  1981.1931 O.3      607 DA      0.0000
    424 C3'       -2.6403    -6.7706  1980.0748 C.3      607 DA      0.0000
    425 O3'       -3.9798    -7.1962  1979.9996 O.3      607 DA      0.0000
    426 C2'       -2.1751    -5.7241  1979.0783 C.3      607 DA      0.0000
    427 C1'       -2.1980    -4.4068  1979.8021 C.3      607 DA      0.0000
    428 N9        -0.9603    -3.6409  1979.5766 N.ar     607 DA      0.0000
    429 C8         0.3238    -4.1051  1979.3902 C.ar     607 DA      0.0000
    430 N7         1.2172    -3.1628  1979.1943 N.ar     607 DA      0.0000
    431 C5         0.4710    -1.9942  1979.2812 C.ar     607 DA      0.0000
    432 C6         0.8461    -0.6345  1979.1756 C.ar     607 DA      0.0000
    433 N6         2.0852    -0.2277  1978.9631 N.pl3    607 DA      0.0000
    434 N1        -0.1595     0.2753  1979.2993 N.ar     607 DA      0.0000
    435 C2        -1.4487    -0.1160  1979.5238 C.ar     607 DA      0.0000
    436 N3        -1.8664    -1.3749  1979.6397 N.ar     607 DA      0.0000
    437 C4        -0.8581    -2.2699  1979.5036 C.ar     607 DA      0.0000
    438 H5'       -1.0554    -7.3030  1982.6912 H        607 DA      0.0000
    439 H5''      -0.4518    -5.6520  1982.3798 H        607 DA      0.0000
    440 H4'       -3.0632    -6.4102  1982.1430 H        607 DA      0.0000
    441 H3'       -2.0031    -7.6477  1979.9617 H        607 DA      0.0000
    442 H2'       -2.8480    -5.6947  1978.2214 H        607 DA      0.0000
    443 H2''      -1.1612    -5.9496  1978.7477 H        607 DA      0.0000
    444 H1'       -3.0451    -3.8220  1979.4439 H        607 DA      0.0000
    445 H8         0.5744    -5.1556  1979.4041 H        607 DA      0.0000
    446 H2        -2.1923     0.6617  1979.6151 H        607 DA      0.0000
    447 H61        2.3988     0.6791  1979.2785 H        607 DA      0.0000
    448 H62        2.7301    -0.8342  1978.4769 H        607 DA      0.0000
    449 P         -5.0248    -7.1571  1978.8151 P.3      606 DA      0.0000
    450 OP1       -6.4507    -7.5028  1979.3350 O.co2    606 DA      0.0000
    451 OP2       -4.5731    -8.2354  1977.8814 O.co2    606 DA      0.0000
    452 O5'       -5.1108    -5.6665  1978.3124 O.3      606 DA      0.0000
    453 C5'       -6.1808    -4.8128  1978.7682 C.3      606 DA      0.0000
    454 C4'       -6.0141    -3.4827  1978.0663 C.3      606 DA      0.0000
    455 O4'       -4.6865    -3.0579  1977.9455 O.3      606 DA      0.0000
    456 C3'       -6.6084    -3.4580  1976.6587 C.3      606 DA      0.0000
    457 O3'       -7.7282    -2.5530  1976.6273 O.3      606 DA      0.0000
    458 C2'       -5.4074    -3.1603  1975.7592 C.3      606 DA      0.0000
    459 C1'       -4.4897    -2.3872  1976.6570 C.3      606 DA      0.0000
    460 N9        -3.0640    -2.4697  1976.3574 N.ar     606 DA      0.0000
    461 C8        -2.2758    -3.5851  1976.1626 C.ar     606 DA      0.0000
    462 N7        -1.0074    -3.3088  1975.9572 N.ar     606 DA      0.0000
    463 C5        -0.9454    -1.9309  1976.0317 C.ar     606 DA      0.0000
    464 C6         0.1319    -1.0264  1975.8982 C.ar     606 DA      0.0000
    465 N6         1.3850    -1.3980  1975.6551 N.pl3    606 DA      0.0000
    466 N1        -0.1952     0.2975  1976.0471 N.ar     606 DA      0.0000
    467 C2        -1.4544     0.7035  1976.2996 C.ar     606 DA      0.0000
    468 N3        -2.5196    -0.0917  1976.4385 N.ar     606 DA      0.0000
    469 C4        -2.1943    -1.3953  1976.2912 C.ar     606 DA      0.0000
    470 H5'       -7.1449    -5.2524  1978.5131 H        606 DA      0.0000
    471 H5''      -6.1104    -4.6741  1979.8470 H        606 DA      0.0000
    472 H4'       -6.5431    -2.7344  1978.6564 H        606 DA      0.0000
    473 H3'       -6.9713    -4.4585  1976.4237 H        606 DA      0.0000
    474 H2'       -4.9359    -4.0825  1975.4193 H        606 DA      0.0000
    475 H2''      -5.7106    -2.5509  1974.9079 H        606 DA      0.0000
    476 H1'       -4.8058    -1.3457  1976.7181 H        606 DA      0.0000
    477 H8        -2.6651    -4.5924  1976.1776 H        606 DA      0.0000
    478 H2        -1.6180     1.7664  1976.3987 H        606 DA      0.0000
    479 H61        2.0945    -0.7420  1975.9491 H        606 DA      0.0000
    480 H62        1.6117    -2.2748  1975.2078 H        606 DA      0.0000
    481 P         -8.5214    -2.3414  1975.2423 P.3      605 DT      0.0000
    482 OP1       -9.8528    -1.6580  1975.3005 O.co2    605 DT      0.0000
    483 OP2       -8.5436    -3.7455  1974.7297 O.co2    605 DT      0.0000
    484 O5'       -7.4698    -1.2563  1974.5392 O.3      605 DT      0.0000
    485 C5'       -7.0316    -0.3003  1975.5515 C.3      605 DT      0.0000
    486 C4'       -6.5595     0.9434  1974.8686 C.3      605 DT      0.0000
    487 O4'       -5.1757     0.9902  1974.6881 O.3      605 DT      0.0000
    488 C3'       -7.1934     1.1848  1973.5073 C.3      605 DT      0.0000
    489 O3'       -7.4438     2.5700  1973.2400 O.3      605 DT      0.0000
    490 C2'       -6.1321     0.5294  1972.6140 C.3      605 DT      0.0000
    491 C1'       -4.8497     1.0164  1973.2540 C.3      605 DT      0.0000
    492 N1        -3.7433     0.0683  1973.0240 N.am     605 DT      0.0000
    493 C2        -2.4681     0.5916  1972.9024 C.2      605 DT      0.0000
    494 O2        -2.2723     1.8074  1972.9392 O.2      605 DT      0.0000
    495 N3        -1.4286    -0.2826  1972.7350 N.am     605 DT      0.0000
    496 C4        -1.6211    -1.6281  1972.6865 C.2      605 DT      0.0000
    497 O4        -0.6042    -2.3612  1972.5010 O.2      605 DT      0.0000
    498 C5        -2.9379    -2.1467  1972.8349 C.2      605 DT      0.0000
    499 C7        -3.1896    -3.6349  1972.7828 C.3      605 DT      0.0000
    500 C6        -3.9415    -1.2802  1973.0079 C.2      605 DT      0.0000
    501 H5'       -7.8638    -0.0610  1976.2136 H        605 DT      0.0000
    502 H5''      -6.2153    -0.7309  1976.1315 H        605 DT      0.0000
    503 H4'       -6.8313     1.7851  1975.5056 H        605 DT      0.0000
    504 H3'       -8.1261     0.6254  1973.4353 H        605 DT      0.0000
    505 H2'       -6.2034    -0.5578  1972.6446 H        605 DT      0.0000
    506 H2''      -6.2134     0.8922  1971.5894 H        605 DT      0.0000
    507 H1'       -4.5919     2.0215  1972.9200 H        605 DT      0.0000
    508 H3        -0.4910     0.0821  1972.6448 H        605 DT      0.0000
    509 H6        -4.9433    -1.6618  1973.1392 H        605 DT      0.0000
    510 H71       -3.5039    -3.9157  1971.7776 H        605 DT      0.0000
    511 H72       -3.9731    -3.8957  1973.4943 H        605 DT      0.0000
    512 H73       -2.2738    -4.1675  1973.0393 H        605 DT      0.0000
    513 P         -8.0268     2.9087  1971.7501 P.3      604 DT      0.0000
    514 OP1       -9.4519     3.4448  1971.8981 O.co2    604 DT      0.0000
    515 OP2       -8.0592     1.5650  1971.0803 O.co2    604 DT      0.0000
    516 O5'       -7.0754     3.9442  1971.0980 O.3      604 DT      0.0000
    517 C5'       -6.3304     4.9027  1971.8494 C.3      604 DT      0.0000
    518 C4'       -5.0728     5.2096  1971.1015 C.3      604 DT      0.0000
    519 O4'       -4.0727     4.2287  1971.0445 O.3      604 DT      0.0000
    520 C3'       -5.2112     5.6741  1969.6354 C.3      604 DT      0.0000
    521 O3'       -4.1308     6.6063  1969.5316 O.3      604 DT      0.0000
    522 C2'       -4.9261     4.3741  1968.8716 C.3      604 DT      0.0000
    523 C1'       -3.6891     3.9698  1969.6474 C.3      604 DT      0.0000
    524 N1        -3.2996     2.5608  1969.5412 N.am     604 DT      0.0000
    525 C2        -1.9196     2.3176  1969.5406 C.2      604 DT      0.0000
    526 O2        -1.1098     3.2461  1969.5836 O.2      604 DT      0.0000
    527 N3        -1.5190     1.0135  1969.4871 N.am     604 DT      0.0000
    528 C4        -2.3981    -0.0267  1969.4274 C.2      604 DT      0.0000
    529 O4        -1.9266    -1.2020  1969.3650 O.2      604 DT      0.0000
    530 C5        -3.7927     0.2485  1969.4356 C.2      604 DT      0.0000
    531 C7        -4.7807    -0.8977  1969.3742 C.3      604 DT      0.0000
    532 C6        -4.1801     1.5256  1969.5021 C.2      604 DT      0.0000
    533 H5'       -6.9179     5.8126  1971.9717 H        604 DT      0.0000
    534 H5''      -6.0841     4.4906  1972.8280 H        604 DT      0.0000
    535 H4'       -4.6220     6.0504  1971.6287 H        604 DT      0.0000
    536 H3'       -6.1844     6.1086  1969.4067 H        604 DT      0.0000
    537 H2'       -4.7174     4.5483  1967.8161 H        604 DT      0.0000
    538 H2''      -5.7313     3.6514  1969.0033 H        604 DT      0.0000
    539 H1'       -2.8510     4.6084  1969.3684 H        604 DT      0.0000
    540 H3        -0.5295     0.8109  1969.4920 H        604 DT      0.0000
    541 H6        -5.2373     1.7447  1969.5258 H        604 DT      0.0000
    542 H71       -4.2394    -1.8425  1969.3254 H        604 DT      0.0000
    543 H72       -5.4058    -0.7911  1968.4876 H        604 DT      0.0000
    544 H73       -5.4085    -0.8843  1970.2652 H        604 DT      0.0000
    545 P         -3.8865     7.6246  1968.3854 P.3      603 DC      0.0000
    546 OP1       -3.6073     8.9999  1968.9946 O.co2    603 DC      0.0000
    547 OP2       -5.1617     7.6706  1967.6036 O.co2    603 DC      0.0000
    548 O5'       -2.5951     6.9613  1967.6460 O.3      603 DC      0.0000
    549 C5'       -1.3291     7.1016  1968.3705 C.3      603 DC      0.0000
    550 C4'       -0.2584     7.2429  1967.3200 C.3      603 DC      0.0000
    551 O4'        0.4119     6.0285  1967.0747 O.3      603 DC      0.0000
    552 C3'       -0.7442     7.7348  1965.9556 C.3      603 DC      0.0000
    553 O3'        0.1937     8.5473  1965.2463 O.3      603 DC      0.0000
    554 C2'       -1.0654     6.4000  1965.2695 C.3      603 DC      0.0000
    555 C1'        0.0234     5.4787  1965.8160 C.3      603 DC      0.0000
    556 N1        -0.5479     4.1165  1965.9338 N.am     603 DC      0.0000
    557 C2         0.3516     3.0515  1965.9511 C.2      603 DC      0.0000
    558 O2         1.5733     3.2439  1965.8824 O.2      603 DC      0.0000
    559 N3        -0.1720     1.7911  1966.0543 N.2      603 DC      0.0000
    560 C4        -1.5105     1.5684  1966.1251 C.2      603 DC      0.0000
    561 N4        -1.9727     0.3204  1966.2270 N.pl3    603 DC      0.0000
    562 C5        -2.4067     2.6733  1966.0999 C.2      603 DC      0.0000
    563 C6        -1.8915     3.9111  1966.0063 C.2      603 DC      0.0000
    564 H5'       -1.3538     7.9865  1969.0065 H        603 DC      0.0000
    565 H5''      -1.1444     6.2131  1968.9744 H        603 DC      0.0000
    566 H4'        0.4760     7.9589  1967.6888 H        603 DC      0.0000
    567 H3'       -1.6689     8.2959  1966.0898 H        603 DC      0.0000
    568 H2'       -0.9992     6.4883  1964.1851 H        603 DC      0.0000
    569 H2''      -2.0525     6.0445  1965.5654 H        603 DC      0.0000
    570 H1'        0.8757     5.4668  1965.1367 H        603 DC      0.0000
    571 H5        -3.4745     2.5210  1966.1547 H        603 DC      0.0000
    572 H6        -2.5578     4.7609  1965.9882 H        603 DC      0.0000
    573 H41       -1.3281    -0.4569  1966.2477 H        603 DC      0.0000
    574 H42       -2.9672     0.1532  1966.2834 H        603 DC      0.0000
    575 P          0.4275     8.5509  1963.6143 P.3      602 DA      0.0000
    576 OP1        1.0375     9.8800  1963.2248 O.co2    602 DA      0.0000
    577 OP2       -0.9227     8.2923  1963.0442 O.co2    602 DA      0.0000
    578 O5'        1.5451     7.4231  1963.4488 O.3      602 DA      0.0000
    579 C5'        2.9157     7.7339  1963.9142 C.3      602 DA      0.0000
    580 C4'        3.7553     6.8209  1963.0369 C.3      602 DA      0.0000
    581 O4'        3.4229     5.4526  1963.3042 O.3      602 DA      0.0000
    582 C3'        3.4838     6.9993  1961.5325 C.3      602 DA      0.0000
    583 O3'        4.5169     6.4312  1960.7435 O.3      602 DA      0.0000
    584 C2'        2.2716     6.0686  1961.3450 C.3      602 DA      0.0000
    585 C1'        2.9079     4.8694  1962.0997 C.3      602 DA      0.0000
    586 N9         1.8181     3.9098  1962.2451 N.ar     602 DA      0.0000
    587 C8         0.4745     4.2019  1962.3180 C.ar     602 DA      0.0000
    588 N7        -0.2827     3.1397  1962.4326 N.ar     602 DA      0.0000
    589 C5         0.6379     2.0766  1962.4262 C.ar     602 DA      0.0000
    590 C6         0.4402     0.6720  1962.5262 C.ar     602 DA      0.0000
    591 N6        -0.7597     0.0972  1962.6490 N.pl3    602 DA      0.0000
    592 N1         1.5876    -0.0619  1962.4910 N.ar     602 DA      0.0000
    593 C2         2.8056     0.5210  1962.3721 C.ar     602 DA      0.0000
    594 N3         3.0632     1.8288  1962.2807 N.ar     602 DA      0.0000
    595 C4         1.9241     2.5425  1962.3082 C.ar     602 DA      0.0000
    596 H5'        3.1633     8.7821  1963.7474 H        602 DA      0.0000
    597 H5''       3.0338     7.4727  1964.9658 H        602 DA      0.0000
    598 H4'        4.8130     6.9878  1963.2409 H        602 DA      0.0000
    599 H3'        3.2674     8.0330  1961.2629 H        602 DA      0.0000
    600 H2'        1.3686     6.4437  1961.8267 H        602 DA      0.0000
    601 H2''       2.1004     5.8374  1960.2937 H        602 DA      0.0000
    602 H1'        3.7174     4.4376  1961.5113 H        602 DA      0.0000
    603 H8         0.0835     5.2081  1962.2839 H        602 DA      0.0000
    604 H2         3.6579    -0.1419  1962.3489 H        602 DA      0.0000
    605 H61       -1.5927     0.6677  1962.6738 H        602 DA      0.0000
    606 H62       -0.8337    -0.9077  1962.7171 H        602 DA      0.0000
    607 P          5.2260     7.2779  1959.6025 P.3      601 DC      0.0000
    608 OP1        6.2747     8.0532  1960.3828 O.co2    601 DC      0.0000
    609 OP2        4.2908     8.1449  1958.8769 O.co2    601 DC      0.0000
    610 O5'        5.7731     6.0726  1958.6267 O.3      601 DC      0.0000
    611 C5'        6.5680     5.0203  1959.2957 C.3      601 DC      0.0000
    612 C4'        6.2476     3.6973  1958.6517 C.3      601 DC      0.0000
    613 O4'        5.1906     2.9904  1959.2888 O.3      601 DC      0.0000
    614 C3'        5.8429     3.8334  1957.1738 C.3      601 DC      0.0000
    615 O3'        6.2415     2.7355  1956.3625 O.3      601 DC      0.0000
    616 C2'        4.2881     3.8081  1957.3395 C.3      601 DC      0.0000
    617 C1'        4.3267     2.5154  1958.2351 C.3      601 DC      0.0000
    618 N1         2.9609     2.1276  1958.4730 N.am     601 DC      0.0000
    619 C2         2.6955     0.8053  1958.7901 C.2      601 DC      0.0000
    620 O2         3.4739    -0.1447  1958.9306 O.2      601 DC      0.0000
    621 N3         1.3922     0.4423  1958.9883 N.2      601 DC      0.0000
    622 C4         0.3650     1.3379  1958.8723 C.2      601 DC      0.0000
    623 N4        -0.8978     0.9378  1959.0884 N.pl3    601 DC      0.0000
    624 C5         0.6529     2.6911  1958.5427 C.2      601 DC      0.0000
    625 C6         1.9353     3.0219  1958.3510 C.2      601 DC      0.0000
    626 H5'        7.6307     5.2356  1959.1842 H        601 DC      0.0000
    627 H5''       6.3107     4.9843  1960.3543 H        601 DC      0.0000
    628 H4'        7.1422     3.0763  1958.6984 H        601 DC      0.0000
    629 H3'        6.1823     4.7807  1956.7548 H        601 DC      0.0000
    630 H2'        3.8927     4.6824  1957.8566 H        601 DC      0.0000
    631 H2''       3.7803     3.6316  1956.3913 H        601 DC      0.0000
    632 H1'        4.8337     1.7191  1957.6902 H        601 DC      0.0000
    633 H5        -0.1344     3.4247  1958.4506 H        601 DC      0.0000
    634 H6         2.1703     4.0426  1958.0877 H        601 DC      0.0000
    635 H41       -1.0885    -0.0244  1959.3289 H        601 DC      0.0000
    636 H42       -1.6574     1.5989  1959.0105 H        601 DC      0.0000
    637 P         -5.4581    -8.4018  1992.9617 P.3      611 DG      0.0000
    638 OP1       -6.7608    -9.1121  1992.9602 O.co2    611 DG      0.0000
    639 OP2       -5.5601    -7.2913  1994.0174 O.co2    611 DG      0.0000
    640 O5'       -4.1531    -9.2944  1993.1401 O.3      611 DG      0.0000
    641 C5'       -3.2097    -9.7343  1992.1401 C.3      611 DG      0.0000
    642 C4'       -1.8142    -9.4222  1992.6389 C.3      611 DG      0.0000
    643 O4'       -1.3732    -8.1489  1992.2198 O.3      611 DG      0.0000
    644 C3'       -1.5615    -9.4980  1994.1311 C.3      611 DG      0.0000
    645 O3'       -0.4487   -10.3788  1994.4431 O.3      611 DG      0.0000
    646 C2'       -1.3256    -8.0602  1994.5530 C.3      611 DG      0.0000
    647 C1'       -0.8051    -7.4035  1993.2973 C.3      611 DG      0.0000
    648 N9        -1.2009    -5.9837  1993.2683 N.ar     611 DG      0.0000
    649 C8        -2.4324    -5.4168  1993.4972 C.ar     611 DG      0.0000
    650 N7        -2.4447    -4.1060  1993.4075 N.ar     611 DG      0.0000
    651 C5        -1.1278    -3.7834  1993.0904 C.ar     611 DG      0.0000
    652 C6        -0.4890    -2.5391  1992.8645 C.2      611 DG      0.0000
    653 O6        -0.9854    -1.4125  1992.8858 O.2      611 DG      0.0000
    654 N1         0.8477    -2.6134  1992.5830 N.am     611 DG      0.0000
    655 C2         1.4954    -3.7327  1992.5224 C.2      611 DG      0.0000
    656 N2         2.7192    -3.5243  1992.2256 N.pl3    611 DG      0.0000
    657 N3         0.9565    -5.0062  1992.7311 N.2      611 DG      0.0000
    658 C4        -0.3537    -4.9254  1993.0037 C.ar     611 DG      0.0000
    659 H5'       -3.3136   -10.8077  1991.9814 H        611 DG      0.0000
    660 H5''      -3.3924    -9.2053  1991.2047 H        611 DG      0.0000
    661 H4'       -1.1487   -10.1496  1992.1742 H        611 DG      0.0000
    662 H3'       -2.4589    -9.8706  1994.6251 H        611 DG      0.0000
    663 H2'       -2.2545    -7.5931  1994.8800 H        611 DG      0.0000
    664 H2''      -0.5776    -8.0139  1995.3445 H        611 DG      0.0000
    665 H1'        0.2816    -7.4823  1993.2654 H        611 DG      0.0000
    666 H8        -3.3124    -5.9980  1993.7302 H        611 DG      0.0000
    667 H1         1.3526    -1.7550  1992.4146 H        611 DG      0.0000
    668 H21        3.0503    -2.5810  1992.0812 H        611 DG      0.0000
    669 H22        3.3565    -4.3025  1992.1351 H        611 DG      0.0000
    670 P          0.2212   -10.4331  1995.8716 P.3      612 DT      0.0000
    671 OP1        0.5934   -11.8007  1996.3833 O.co2    612 DT      0.0000
    672 OP2       -0.9241    -9.9701  1996.7903 O.co2    612 DT      0.0000
    673 O5'        1.3547    -9.3762  1995.9002 O.3      612 DT      0.0000
    674 C5'        2.7613    -9.7156  1995.7562 C.3      612 DT      0.0000
    675 C4'        3.4828    -8.3854  1995.8137 C.3      612 DT      0.0000
    676 O4'        2.6238    -7.3007  1995.5386 O.3      612 DT      0.0000
    677 C3'        4.1353    -8.0326  1997.1265 C.3      612 DT      0.0000
    678 O3'        5.5573    -7.9841  1996.9383 O.3      612 DT      0.0000
    679 C2'        3.5734    -6.6663  1997.5187 C.3      612 DT      0.0000
    680 C1'        3.2000    -6.1182  1996.1659 C.3      612 DT      0.0000
    681 N1         2.1398    -5.1146  1996.2626 N.am     612 DT      0.0000
    682 C2         2.4901    -3.8066  1996.0647 C.2      612 DT      0.0000
    683 O2         3.6453    -3.4616  1995.8265 O.2      612 DT      0.0000
    684 N3         1.4909    -2.8744  1996.1457 N.am     612 DT      0.0000
    685 C4         0.2031    -3.1978  1996.4016 C.2      612 DT      0.0000
    686 O4        -0.6033    -2.2322  1996.4469 O.2      612 DT      0.0000
    687 C5        -0.1452    -4.5722  1996.6013 C.2      612 DT      0.0000
    688 C7        -1.5574    -4.9721  1996.8812 C.3      612 DT      0.0000
    689 C6         0.8386    -5.4772  1996.5198 C.2      612 DT      0.0000
    690 H5'        3.0857   -10.3647  1996.5697 H        612 DT      0.0000
    691 H5''       2.9366   -10.1989  1994.7950 H        612 DT      0.0000
    692 H4'        4.2596    -8.3958  1995.0492 H        612 DT      0.0000
    693 H3'        3.8816    -8.7746  1997.8836 H        612 DT      0.0000
    694 H2'        2.7027    -6.7616  1998.1675 H        612 DT      0.0000
    695 H2''       4.3414    -6.0513  1997.9879 H        612 DT      0.0000
    696 H1'        4.0675    -5.7466  1995.6206 H        612 DT      0.0000
    697 H3         1.7260    -1.9018  1996.0082 H        612 DT      0.0000
    698 H6         0.6031    -6.5219  1996.6602 H        612 DT      0.0000
    699 H71       -2.0063    -5.3802  1995.9757 H        612 DT      0.0000
    700 H72       -2.1242    -4.0996  1997.2060 H        612 DT      0.0000
    701 H73       -1.5722    -5.7279  1997.6665 H        612 DT      0.0000
    702 P          6.3883    -8.5472  1998.2182 P.3      613 DG      0.0000
    703 OP1        7.5439    -9.2358  1997.5031 O.co2    613 DG      0.0000
    704 OP2        5.5370    -9.4503  1998.9717 O.co2    613 DG      0.0000
    705 O5'        6.7629    -7.0800  1998.8277 O.3      613 DG      0.0000
    706 C5'        7.2398    -6.2045  1997.7371 C.3      613 DG      0.0000
    707 C4'        7.2541    -4.7972  1998.2572 C.3      613 DG      0.0000
    708 O4'        6.0806    -4.0506  1998.0766 O.3      613 DG      0.0000
    709 C3'        7.5981    -4.7269  1999.7652 C.3      613 DG      0.0000
    710 O3'        8.7196    -3.8245  1999.9241 O.3      613 DG      0.0000
    711 C2'        6.2984    -4.3068  2000.4178 C.3      613 DG      0.0000
    712 C1'        5.6767    -3.4310  1999.3362 C.3      613 DG      0.0000
    713 N9         4.2234    -3.3236  1999.5058 N.ar     613 DG      0.0000
    714 C8         3.3268    -4.3001  1999.8420 C.ar     613 DG      0.0000
    715 N7         2.0795    -3.8930  1999.9277 N.ar     613 DG      0.0000
    716 C5         2.1689    -2.5425  1999.5977 C.ar     613 DG      0.0000
    717 C6         1.1634    -1.5383  1999.5033 C.2      613 DG      0.0000
    718 O6        -0.0561    -1.6547  1999.6957 O.2      613 DG      0.0000
    719 N1         1.6360    -0.2900  1999.1683 N.am     613 DG      0.0000
    720 C2         2.9587    -0.0566  1998.9445 C.2      613 DG      0.0000
    721 N2         3.2366     1.2168  1998.6357 N.pl3    613 DG      0.0000
    722 N3         3.9336    -0.9601  1999.0156 N.2      613 DG      0.0000
    723 C4         3.4740    -2.1802  1999.3421 C.ar     613 DG      0.0000
    724 H5'        8.2451    -6.4996  1997.4366 H        613 DG      0.0000
    725 H5''       6.5642    -6.2758  1996.8847 H        613 DG      0.0000
    726 H4'        8.0482    -4.2718  1997.7266 H        613 DG      0.0000
    727 H3'        7.8779    -5.7188  2000.1200 H        613 DG      0.0000
    728 H2'        5.6695    -5.1686  2000.6407 H        613 DG      0.0000
    729 H2''       6.4904    -3.7264  2001.3202 H        613 DG      0.0000
    730 H1'        6.1135    -2.4341  1999.3952 H        613 DG      0.0000
    731 H8         3.6198    -5.3238  2000.0226 H        613 DG      0.0000
    732 H1         0.9825     0.4756  1999.0860 H        613 DG      0.0000
    733 H21        2.4928     1.8982  1998.5855 H        613 DG      0.0000
    734 H22        4.1901     1.4956  1998.4530 H        613 DG      0.0000
    735 P          9.4040    -3.6064  2001.3125 P.3      614 DA      0.0000
    736 OP1       10.5199    -4.5347  2001.6678 O.co2    614 DA      0.0000
    737 OP2        8.1681    -3.9860  2002.2082 O.co2    614 DA      0.0000
    738 O5'        9.5928    -2.0517  2001.5616 O.3      614 DA      0.0000
    739 C5'        9.6504    -1.0530  2000.5326 C.3      614 DA      0.0000
    740 C4'        8.7355     0.0646  2001.0069 C.3      614 DA      0.0000
    741 O4'        7.3845    -0.3343  2000.9165 O.3      614 DA      0.0000
    742 C3'        8.9577     0.5601  2002.4359 C.3      614 DA      0.0000
    743 O3'        8.9972     2.0012  2002.4882 O.3      614 DA      0.0000
    744 C2'        7.7497    -0.0330  2003.1714 C.3      614 DA      0.0000
    745 C1'        6.6930     0.1567  2002.0938 C.3      614 DA      0.0000
    746 N9         5.4698    -0.6191  2002.3222 N.ar     614 DA      0.0000
    747 C8         5.3067    -1.9581  2002.5379 C.ar     614 DA      0.0000
    748 N7         4.0546    -2.3225  2002.7029 N.ar     614 DA      0.0000
    749 C5         3.3430    -1.1404  2002.5627 C.ar     614 DA      0.0000
    750 C6         1.9577    -0.8709  2002.6107 C.ar     614 DA      0.0000
    751 N6         1.0165    -1.7920  2002.8304 N.pl3    614 DA      0.0000
    752 N1         1.6119     0.4371  2002.4209 N.ar     614 DA      0.0000
    753 C2         2.5503     1.3873  2002.2031 C.ar     614 DA      0.0000
    754 N3         3.8693     1.2076  2002.1449 N.ar     614 DA      0.0000
    755 C4         4.1914    -0.0853  2002.3317 C.ar     614 DA      0.0000
    756 H5'        9.2964    -1.4599  1999.5854 H        614 DA      0.0000
    757 H5''      10.6701    -0.6832  2000.4248 H        614 DA      0.0000
    758 H4'        8.8753     0.9131  2000.3371 H        614 DA      0.0000
    759 H3'        9.8820     0.1448  2002.8374 H        614 DA      0.0000
    760 H2'        7.8977    -1.0847  2003.4169 H        614 DA      0.0000
    761 H2''       7.5097     0.5473  2004.0623 H        614 DA      0.0000
    762 H1'        6.4547     1.2142  2001.9793 H        614 DA      0.0000
    763 H8         6.1318    -2.6542  2002.5700 H        614 DA      0.0000
    764 H2         2.1930     2.3967  2002.0618 H        614 DA      0.0000
    765 H61        1.1481    -2.7887  2002.7330 H        614 DA      0.0000
    766 H62        0.0529    -1.5429  2002.6589 H        614 DA      0.0000
    767 P          9.8523     2.8162  2003.6296 P.3      615 DA      0.0000
    768 OP1       10.9154     3.6530  2002.9626 O.co2    615 DA      0.0000
    769 OP2       10.3522     1.7019  2004.4606 O.co2    615 DA      0.0000
    770 O5'        8.7897     3.8811  2004.1605 O.3      615 DA      0.0000
    771 C5'        8.1987     4.8843  2003.3362 C.3      615 DA      0.0000
    772 C4'        6.7997     5.1605  2003.8585 C.3      615 DA      0.0000
    773 O4'        6.0287     3.9927  2003.8866 O.3      615 DA      0.0000
    774 C3'        6.6787     5.8107  2005.2258 C.3      615 DA      0.0000
    775 O3'        6.0742     7.1015  2005.1479 O.3      615 DA      0.0000
    776 C2'        5.9054     4.7776  2006.0545 C.3      615 DA      0.0000
    777 C1'        5.1536     3.9803  2005.0607 C.3      615 DA      0.0000
    778 N9         4.8296     2.5674  2005.3288 N.ar     615 DA      0.0000
    779 C8         5.6581     1.4775  2005.4439 C.ar     615 DA      0.0000
    780 N7         5.0276     0.3395  2005.6132 N.ar     615 DA      0.0000
    781 C5         3.6835     0.6964  2005.5762 C.ar     615 DA      0.0000
    782 C6         2.4939    -0.0770  2005.6967 C.ar     615 DA      0.0000
    783 N6         2.4444    -1.3893  2005.8883 N.pl3    615 DA      0.0000
    784 N1         1.3183     0.6244  2005.5985 N.ar     615 DA      0.0000
    785 C2         1.3291     1.9759  2005.4094 C.ar     615 DA      0.0000
    786 N3         2.3989     2.7556  2005.3016 N.ar     615 DA      0.0000
    787 C4         3.5457     2.0529  2005.3934 C.ar     615 DA      0.0000
    788 H5'        8.1454     4.5317  2002.3061 H        615 DA      0.0000
    789 H5''       8.7947     5.7958  2003.3821 H        615 DA      0.0000
    790 H4'        6.3246     5.8346  2003.1458 H        615 DA      0.0000
    791 H3'        7.6773     5.9191  2005.6490 H        615 DA      0.0000
    792 H2'        6.5923     4.1433  2006.6148 H        615 DA      0.0000
    793 H2''       5.2164     5.2791  2006.7341 H        615 DA      0.0000
    794 H1'        4.2325     4.5086  2004.8147 H        615 DA      0.0000
    795 H8         6.7346     1.5511  2005.3991 H        615 DA      0.0000
    796 H2         0.3673     2.4622  2005.3403 H        615 DA      0.0000
    797 H61        3.2417    -1.9167  2006.2145 H        615 DA      0.0000
    798 H62        1.5801    -1.8773  2005.7015 H        615 DA      0.0000
    799 P          6.4256     8.3690  2006.1042 P.3      616 DT      0.0000
    800 OP1        6.5055     9.6659  2005.3069 O.co2    616 DT      0.0000
    801 OP2        7.5842     8.0849  2006.9248 O.co2    616 DT      0.0000
    802 O5'        5.0105     8.5698  2006.9179 O.3      616 DT      0.0000
    803 C5'        3.8739     8.3711  2005.9728 C.3      616 DT      0.0000
    804 C4'        2.8698     7.5684  2006.7605 C.3      616 DT      0.0000
    805 O4'        3.2455     6.2231  2006.9525 O.3      616 DT      0.0000
    806 C3'        2.6559     8.1330  2008.1771 C.3      616 DT      0.0000
    807 O3'        1.4953     8.9435  2008.1788 O.3      616 DT      0.0000
    808 C2'        2.5792     6.9002  2009.0743 C.3      616 DT      0.0000
    809 C1'        2.4025     5.7964  2008.1097 C.3      616 DT      0.0000
    810 N1         2.8150     4.4439  2008.4495 N.am     616 DT      0.0000
    811 C2         1.8066     3.4952  2008.5874 C.2      616 DT      0.0000
    812 O2         0.6340     3.8361  2008.4994 O.2      616 DT      0.0000
    813 N3         2.1656     2.2059  2008.8414 N.am     616 DT      0.0000
    814 C4         3.4678     1.8129  2008.9616 C.2      616 DT      0.0000
    815 O4         3.7213     0.5923  2009.2167 O.2      616 DT      0.0000
    816 C5         4.4902     2.8033  2008.7900 C.2      616 DT      0.0000
    817 C7         5.9412     2.4188  2008.8775 C.3      616 DT      0.0000
    818 C6         4.1308     4.0730  2008.5342 C.2      616 DT      0.0000
    819 H5'        3.4507     9.3293  2005.6711 H        616 DT      0.0000
    820 H5''       4.2032     7.8107  2005.0978 H        616 DT      0.0000
    821 H4'        1.9171     7.5900  2006.2314 H        616 DT      0.0000
    822 H3'        3.5189     8.7351  2008.4614 H        616 DT      0.0000
    823 H2'        3.4977     6.7757  2009.6477 H        616 DT      0.0000
    824 H2''       1.7191     6.9661  2009.7408 H        616 DT      0.0000
    825 H1'        1.3599     5.7738  2007.7924 H        616 DT      0.0000
    826 H3         1.4388     1.5123  2008.9451 H        616 DT      0.0000
    827 H6         4.8985     4.8193  2008.3921 H        616 DT      0.0000
    828 H71        6.0229     1.3529  2009.0905 H        616 DT      0.0000
    829 H72        6.4328     2.6383  2007.9297 H        616 DT      0.0000
    830 H73        6.4201     2.9865  2009.6753 H        616 DT      0.0000
    831 P          0.9704     9.8972  2009.2854 P.3      617 DT      0.0000
    832 OP1        0.0348    10.9716  2008.6733 O.co2    617 DT      0.0000
    833 OP2        2.1707    10.5052  2009.9153 O.co2    617 DT      0.0000
    834 O5'       -0.0115     8.9865  2010.1677 O.3      617 DT      0.0000
    835 C5'       -1.2278     8.6333  2009.4559 C.3      617 DT      0.0000
    836 C4'       -1.8542     7.4635  2010.1321 C.3      617 DT      0.0000
    837 O4'       -1.0521     6.2893  2010.1088 O.3      617 DT      0.0000
    838 C3'       -2.2369     7.7088  2011.5987 C.3      617 DT      0.0000
    839 O3'       -3.5233     7.1818  2011.8628 O.3      617 DT      0.0000
    840 C2'       -1.1660     6.8693  2012.3351 C.3      617 DT      0.0000
    841 C1'       -1.2107     5.6539  2011.4315 C.3      617 DT      0.0000
    842 N1        -0.1223     4.7412  2011.7292 N.am     617 DT      0.0000
    843 C2        -0.3943     3.3838  2011.7840 C.2      617 DT      0.0000
    844 O2        -1.5493     2.9992  2011.5956 O.2      617 DT      0.0000
    845 N3         0.6374     2.5282  2012.0499 N.am     617 DT      0.0000
    846 C4         1.9091     2.9671  2012.2569 C.2      617 DT      0.0000
    847 O4         2.8159     2.1149  2012.4802 O.2      617 DT      0.0000
    848 C5         2.1781     4.3653  2012.1919 C.2      617 DT      0.0000
    849 C7         3.5543     4.9263  2012.4018 C.3      617 DT      0.0000
    850 C6         1.1531     5.1915  2011.9307 C.2      617 DT      0.0000
    851 H5'       -1.9180     9.4769  2009.4684 H        617 DT      0.0000
    852 H5''      -0.9861     8.3738  2008.4252 H        617 DT      0.0000
    853 H4'       -2.7740     7.2355  2009.5936 H        617 DT      0.0000
    854 H3'       -2.1721     8.7648  2011.8612 H        617 DT      0.0000
    855 H2'       -0.1883     7.3511  2012.3338 H        617 DT      0.0000
    856 H2''      -1.4842     6.6218  2013.3478 H        617 DT      0.0000
    857 H1'       -2.1734     5.1485  2011.5071 H        617 DT      0.0000
    858 H3         0.4500     1.5367  2012.0943 H        617 DT      0.0000
    859 H6         1.3430     6.2533  2011.8777 H        617 DT      0.0000
    860 H71        4.2523     4.1130  2012.6007 H        617 DT      0.0000
    861 H72        3.8680     5.4631  2011.5065 H        617 DT      0.0000
    862 H73        3.5424     5.6105  2013.2502 H        617 DT      0.0000
    863 P         -4.8667     7.7191  2012.4707 P.3      618 DC      0.0000
    864 OP1       -5.9310     7.8830  2011.4028 O.co2    618 DC      0.0000
    865 OP2       -4.5000     8.9434  2013.2057 O.co2    618 DC      0.0000
    866 O5'       -5.2465     6.3650  2013.2967 O.3      618 DC      0.0000
    867 C5'       -5.1697     5.3046  2012.2745 C.3      618 DC      0.0000
    868 C4'       -5.4379     4.0009  2012.9710 C.3      618 DC      0.0000
    869 O4'       -4.2739     3.2748  2013.2179 O.3      618 DC      0.0000
    870 C3'       -6.2406     4.1103  2014.2624 C.3      618 DC      0.0000
    871 O3'       -7.4138     3.3116  2014.1828 O.3      618 DC      0.0000
    872 C2'       -5.1871     3.7474  2015.3112 C.3      618 DC      0.0000
    873 C1'       -4.2641     2.8277  2014.6148 C.3      618 DC      0.0000
    874 N1        -2.8398     2.9328  2014.9469 N.am     618 DC      0.0000
    875 C2        -2.1843     1.7304  2015.2027 C.2      618 DC      0.0000
    876 O2        -2.7919     0.6554  2015.2072 O.2      618 DC      0.0000
    877 N3        -0.8401     1.7886  2015.4765 N.2      618 DC      0.0000
    878 C4        -0.1619     2.9719  2015.4666 C.2      618 DC      0.0000
    879 N4         1.1366     2.9246  2015.7435 N.pl3    618 DC      0.0000
    880 C5        -0.8364     4.1811  2015.1886 C.2      618 DC      0.0000
    881 C6        -2.1570     4.1075  2014.9238 C.2      618 DC      0.0000
    882 H5'       -5.9182     5.4762  2011.5008 H        618 DC      0.0000
    883 H5''      -4.1745     5.2895  2011.8303 H        618 DC      0.0000
    884 H4'       -6.0364     3.4015  2012.2850 H        618 DC      0.0000
    885 H3'       -6.5339     5.1503  2014.4057 H        618 DC      0.0000
    886 H2'       -4.6586     4.6388  2015.6491 H        618 DC      0.0000
    887 H2''      -5.6550     3.2431  2016.1567 H        618 DC      0.0000
    888 H1'       -4.6076     1.7964  2014.6958 H        618 DC      0.0000
    889 H5        -0.3156     5.1272  2015.1880 H        618 DC      0.0000
    890 H6        -2.6911     5.0152  2014.6848 H        618 DC      0.0000
    891 H41        1.5785     2.0386  2015.9427 H        618 DC      0.0000
    892 H42        1.6817     3.7748  2015.7548 H        618 DC      0.0000
    893 P         -8.7228     3.4284  2015.1348 P.3      619 DA      0.0000
    894 OP1       -9.8977     2.8901  2014.3411 O.co2    619 DA      0.0000
    895 OP2       -8.9041     4.8530  2015.4803 O.co2    619 DA      0.0000
    896 O5'       -8.3554     2.4845  2016.4318 O.3      619 DA      0.0000
    897 C5'       -7.9291     1.1191  2016.1366 C.3      619 DA      0.0000
    898 C4'       -7.5339     0.4129  2017.3919 C.3      619 DA      0.0000
    899 O4'       -6.1253     0.3477  2017.6340 O.3      619 DA      0.0000
    900 C3'       -8.0589     1.0339  2018.6971 C.3      619 DA      0.0000
    901 O3'       -8.0029     0.0443  2019.7270 O.3      619 DA      0.0000
    902 C2'       -6.9791     2.1132  2018.9117 C.3      619 DA      0.0000
    903 C1'       -5.7703     1.1894  2018.7284 C.3      619 DA      0.0000
    904 N9        -4.5635     1.9935  2018.6341 N.ar     619 DA      0.0000
    905 C8        -4.4015     3.3463  2018.5183 C.ar     619 DA      0.0000
    906 N7        -3.1466     3.7584  2018.4997 N.ar     619 DA      0.0000
    907 C5        -2.4247     2.5781  2018.6072 C.ar     619 DA      0.0000
    908 C6        -1.0327     2.3167  2018.6417 C.ar     619 DA      0.0000
    909 N6        -0.0944     3.2425  2018.5565 N.pl3    619 DA      0.0000
    910 N1        -0.6699     1.0070  2018.7743 N.ar     619 DA      0.0000
    911 C2        -1.6098     0.0142  2018.8545 C.ar     619 DA      0.0000
    912 N3        -2.9301     0.1801  2018.8246 N.ar     619 DA      0.0000
    913 C4        -3.2720     1.4861  2018.7016 C.ar     619 DA      0.0000
    914 H5'       -8.7512     0.5805  2015.6654 H        619 DA      0.0000
    915 H5''      -7.0786     1.1464  2015.4553 H        619 DA      0.0000
    916 H4'       -7.9102    -0.6084  2017.3330 H        619 DA      0.0000
    917 H3'       -9.0558     1.4598  2018.5834 H        619 DA      0.0000
    918 H2'       -7.0207     2.9023  2018.1609 H        619 DA      0.0000
    919 H2''      -7.0190     2.5215  2019.9216 H        619 DA      0.0000
    920 H1'       -5.6879     0.5651  2019.6181 H        619 DA      0.0000
    921 H8        -5.2370     4.0270  2018.4473 H        619 DA      0.0000
    922 H2        -1.2457    -0.9979  2018.9509 H        619 DA      0.0000
    923 H61        0.8994     3.2557  2018.7365 H        619 DA      0.0000
    924 H62       -0.4491     4.1343  2018.2417 H        619 DA      0.0000
    925 P         -9.1345    -1.0783  2019.8675 P.3      620 DC      0.0000
    926 OP1       -9.9312    -1.2684  2018.6224 O.co2    620 DC      0.0000
    927 OP2       -9.9574    -0.5579  2021.0104 O.co2    620 DC      0.0000
    928 O5'       -8.3042    -2.3993  2020.1507 O.3      620 DC      0.0000
    929 C5'       -7.6944    -3.1581  2019.0629 C.3      620 DC      0.0000
    930 C4'       -6.4894    -3.7911  2019.7679 C.3      620 DC      0.0000
    931 O4'       -5.5913    -2.7515  2020.0799 O.3      620 DC      0.0000
    932 C3'       -6.8406    -4.4917  2021.0778 C.3      620 DC      0.0000
    933 O3'       -6.3351    -5.8443  2021.1457 O.3      620 DC      0.0000
    934 C2'       -6.2577    -3.5703  2022.1600 C.3      620 DC      0.0000
    935 C1'       -5.0849    -2.9849  2021.4838 C.3      620 DC      0.0000
    936 N1        -4.5844    -1.6589  2021.8367 N.am     620 DC      0.0000
    937 C2        -3.1977    -1.5229  2021.8098 C.2      620 DC      0.0000
    938 O2        -2.4445    -2.4661  2021.6028 O.2      620 DC      0.0000
    939 N3        -2.6859    -0.2885  2022.0629 N.2      620 DC      0.0000
    940 C4        -3.4709     0.7909  2022.2962 C.2      620 DC      0.0000
    941 N4        -2.8525     1.9475  2022.5272 N.pl3    620 DC      0.0000
    942 C5        -4.8852     0.6423  2022.3028 C.2      620 DC      0.0000
    943 C6        -5.3830    -0.5788  2022.0534 C.2      620 DC      0.0000
    944 H5'       -8.3745    -3.9181  2018.6781 H        620 DC      0.0000
    945 H5''      -7.3679    -2.4924  2018.2639 H        620 DC      0.0000
    946 H4'       -6.0058    -4.4994  2019.0952 H        620 DC      0.0000
    947 H3'       -7.9252    -4.5160  2021.1837 H        620 DC      0.0000
    948 H2'       -6.9724    -2.7990  2022.4470 H        620 DC      0.0000
    949 H2''      -5.9488    -4.1493  2023.0303 H        620 DC      0.0000
    950 H1'       -4.2646    -3.7026  2021.4706 H        620 DC      0.0000
    951 H5        -5.5351     1.4817  2022.5013 H        620 DC      0.0000
    952 H6        -6.4547    -0.7086  2022.0236 H        620 DC      0.0000
    953 H41       -1.8435     1.9916  2022.5161 H        620 DC      0.0000
    954 H42       -3.3925     2.7805  2022.7133 H        620 DC      0.0000
    955 P          7.0776     4.6855  2024.1052 P.3      620 DG      0.0000
    956 OP1        8.2776     5.5602  2024.2840 O.co2    620 DG      0.0000
    957 OP2        6.1322     5.1844  2023.0204 O.co2    620 DG      0.0000
    958 O5'        7.5644     3.1269  2023.8980 O.3      620 DG      0.0000
    959 C5'        7.3817     2.1699  2024.9937 C.3      620 DG      0.0000
    960 C4'        6.9856     0.8386  2024.3595 C.3      620 DG      0.0000
    961 O4'        5.5946     0.6958  2024.2636 O.3      620 DG      0.0000
    962 C3'        7.5372     0.6200  2022.9531 C.3      620 DG      0.0000
    963 O3'        7.9729    -0.7331  2022.6861 O.3      620 DG      0.0000
    964 C2'        6.3561     1.0206  2022.0508 C.3      620 DG      0.0000
    965 C1'        5.1843     0.5132  2022.8747 C.3      620 DG      0.0000
    966 N9         3.9661     1.2946  2022.6014 N.ar     620 DG      0.0000
    967 C8         3.8524     2.6556  2022.4447 C.ar     620 DG      0.0000
    968 N7         2.6309     3.0647  2022.2263 N.ar     620 DG      0.0000
    969 C5         1.8821     1.8941  2022.2511 C.ar     620 DG      0.0000
    970 C6         0.4884     1.6690  2022.0946 C.2      620 DG      0.0000
    971 O6        -0.3825     2.5284  2021.8978 O.2      620 DG      0.0000
    972 N1         0.1156     0.3503  2022.1815 N.am     620 DG      0.0000
    973 C2         1.0049    -0.6488  2022.4022 C.2      620 DG      0.0000
    974 N2         0.4973    -1.8767  2022.4655 N.pl3    620 DG      0.0000
    975 N3         2.3248    -0.4914  2022.5599 N.2      620 DG      0.0000
    976 C4         2.6899     0.8027  2022.4766 C.ar     620 DG      0.0000
    977 H5'        8.3113     2.0572  2025.5515 H        620 DG      0.0000
    978 H5''       6.5896     2.5142  2025.6587 H        620 DG      0.0000
    979 H4'        7.3622     0.0381  2024.9962 H        620 DG      0.0000
    980 H3'        8.3678     1.3050  2022.7826 H        620 DG      0.0000
    981 H2'        6.3085     2.1001  2021.9082 H        620 DG      0.0000
    982 H2''       6.4082     0.5047  2021.0921 H        620 DG      0.0000
    983 H1'        5.0085    -0.5428  2022.6694 H        620 DG      0.0000
    984 H8         4.6970     3.3265  2022.4974 H        620 DG      0.0000
    985 H1        -0.8610     0.1151  2022.0767 H        620 DG      0.0000
    986 H21       -0.4960    -2.0191  2022.3505 H        620 DG      0.0000
    987 H22        1.1051    -2.6666  2022.6287 H        620 DG      0.0000
    988 P          7.8478    -1.2141  2021.1627 P.3      619 DT      0.0000
    989 OP1        8.8572    -2.2597  2020.7718 O.co2    619 DT      0.0000
    990 OP2        8.1038     0.0684  2020.4621 O.co2    619 DT      0.0000
    991 O5'        6.3645    -1.8057  2021.0318 O.3      619 DT      0.0000
    992 C5'        6.1988    -3.2349  2021.2994 C.3      619 DT      0.0000
    993 C4'        4.9839    -3.7256  2020.5423 C.3      619 DT      0.0000
    994 O4'        3.9310    -2.7786  2020.5151 O.3      619 DT      0.0000
    995 C3'        5.2809    -4.0552  2019.0876 C.3      619 DT      0.0000
    996 O3'        4.5795    -5.2164  2018.5925 O.3      619 DT      0.0000
    997 C2'        4.8631    -2.7939  2018.3648 C.3      619 DT      0.0000
    998 C1'        3.5986    -2.4698  2019.1429 C.3      619 DT      0.0000
    999 N1         3.3667    -1.0247  2018.9916 N.am     619 DT      0.0000
   1000 C2         2.0464    -0.5997  2019.0984 C.2      619 DT      0.0000
   1001 O2         1.1459    -1.4102  2019.2881 O.2      619 DT      0.0000
   1002 N3         1.8109     0.7414  2018.9782 N.am     619 DT      0.0000
   1003 C4         2.8177     1.6336  2018.7606 C.2      619 DT      0.0000
   1004 O4         2.5000     2.8650  2018.6630 O.2      619 DT      0.0000
   1005 C5         4.1595     1.1683  2018.6542 C.2      619 DT      0.0000
   1006 C7         5.2782     2.1438  2018.4253 C.3      619 DT      0.0000
   1007 C6         4.3837    -0.1426  2018.7760 C.2      619 DT      0.0000
   1008 H5'        7.0838    -3.7767  2020.9657 H        619 DT      0.0000
   1009 H5''       6.0535    -3.3933  2022.3680 H        619 DT      0.0000
   1010 H4'        4.6188    -4.6293  2021.0303 H        619 DT      0.0000
   1011 H3'        6.3538    -4.2027  2018.9636 H        619 DT      0.0000
   1012 H2'        5.6106    -2.0058  2018.4563 H        619 DT      0.0000
   1013 H2''       4.6370    -2.9992  2017.3184 H        619 DT      0.0000
   1014 H1'        2.7479    -3.0541  2018.7922 H        619 DT      0.0000
   1015 H3         0.8627     1.0811  2019.0529 H        619 DT      0.0000
   1016 H6         5.3955    -0.5130  2018.7018 H        619 DT      0.0000
   1017 H71        4.8725     3.1531  2018.3566 H        619 DT      0.0000
   1018 H72        5.9817     2.0910  2019.2562 H        619 DT      0.0000
   1019 H73        5.7929     1.8951  2017.4971 H        619 DT      0.0000
   1020 P          5.6959    -6.1663  2017.8141 P.3      618 DG      0.0000
   1021 OP1        6.2817    -7.2294  2018.6854 O.co2    618 DG      0.0000
   1022 OP2        6.6457    -5.1003  2017.4086 O.co2    618 DG      0.0000
   1023 O5'        4.7632    -6.8850  2016.7333 O.3      618 DG      0.0000
   1024 C5'        3.9264    -7.9911  2017.1568 C.3      618 DG      0.0000
   1025 C4'        2.5210    -7.6098  2016.7091 C.3      618 DG      0.0000
   1026 O4'        2.2910    -6.2415  2016.9798 O.3      618 DG      0.0000
   1027 C3'        2.2505    -7.8344  2015.2213 C.3      618 DG      0.0000
   1028 O3'        1.1290    -8.6740  2015.0128 O.3      618 DG      0.0000
   1029 C2'        2.1357    -6.4346  2014.6446 C.3      618 DG      0.0000
   1030 C1'        1.6728    -5.6220  2015.8308 C.3      618 DG      0.0000
   1031 N9         2.0990    -4.2255  2015.7072 N.ar     618 DG      0.0000
   1032 C8         3.3645    -3.7358  2015.5483 C.ar     618 DG      0.0000
   1033 N7         3.4185    -2.4285  2015.4703 N.ar     618 DG      0.0000
   1034 C5         2.0931    -2.0266  2015.6078 C.ar     618 DG      0.0000
   1035 C6         1.4892    -0.7416  2015.6173 C.2      618 DG      0.0000
   1036 O6         2.0540     0.3430  2015.5182 O.2      618 DG      0.0000
   1037 N1         0.1314    -0.7528  2015.7662 N.am     618 DG      0.0000
   1038 C2        -0.5789    -1.9213  2015.8991 C.2      618 DG      0.0000
   1039 N2        -1.8987    -1.7883  2016.0348 N.pl3    618 DG      0.0000
   1040 N3        -0.0741    -3.1591  2015.9034 N.2      618 DG      0.0000
   1041 C4         1.2721    -3.1321  2015.7527 C.ar     618 DG      0.0000
   1042 H5'        4.2436    -8.9176  2016.6781 H        618 DG      0.0000
   1043 H5''       3.9610    -8.0962  2018.2411 H        618 DG      0.0000
   1044 H4'        1.8052    -8.1992  2017.2821 H        618 DG      0.0000
   1045 H3'        3.1249    -8.3153  2014.7828 H        618 DG      0.0000
   1046 H2'        3.0993    -6.0806  2014.2783 H        618 DG      0.0000
   1047 H2''       1.3910    -6.4085  2013.8491 H        618 DG      0.0000
   1048 H1'        0.5875    -5.6744  2015.9178 H        618 DG      0.0000
   1049 H8         4.2390    -4.3671  2015.4922 H        618 DG      0.0000
   1050 H1        -0.3662     0.1260  2015.7791 H        618 DG      0.0000
   1051 H21       -2.3161    -0.8686  2016.0357 H        618 DG      0.0000
   1052 H22       -2.4809    -2.6072  2016.1366 H        618 DG      0.0000
   1053 P         -0.1896    -8.5848  2014.1465 P.3      617 DA      0.0000
   1054 OP1       -1.3751    -9.1655  2014.9279 O.co2    617 DA      0.0000
   1055 OP2        0.0810    -9.3907  2012.9538 O.co2    617 DA      0.0000
   1056 O5'       -0.5126    -6.9975  2013.9717 O.3      617 DA      0.0000
   1057 C5'       -1.2607    -6.4643  2015.1282 C.3      617 DA      0.0000
   1058 C4'       -2.5956    -6.0002  2014.6004 C.3      617 DA      0.0000
   1059 O4'       -2.6331    -4.6134  2014.3781 O.3      617 DA      0.0000
   1060 C3'       -2.9603    -6.6369  2013.2599 C.3      617 DA      0.0000
   1061 O3'       -4.3186    -6.9982  2013.1847 O.3      617 DA      0.0000
   1062 C2'       -2.4457    -5.6138  2012.2633 C.3      617 DA      0.0000
   1063 C1'       -2.4057    -4.2970  2012.9871 C.3      617 DA      0.0000
   1064 N9        -1.1329    -3.5909  2012.7616 N.ar     617 DA      0.0000
   1065 C8         0.1276    -4.1159  2012.5753 C.ar     617 DA      0.0000
   1066 N7         1.0649    -3.2173  2012.3794 N.ar     617 DA      0.0000
   1067 C5         0.3753    -2.0144  2012.4662 C.ar     617 DA      0.0000
   1068 C6         0.8148    -0.6741  2012.3606 C.ar     617 DA      0.0000
   1069 N6         2.0720    -0.3269  2012.1481 N.pl3    617 DA      0.0000
   1070 N1        -0.1462     0.2826  2012.4843 N.ar     617 DA      0.0000
   1071 C2        -1.4525    -0.0468  2012.7088 C.ar     617 DA      0.0000
   1072 N3        -1.9298    -1.2843  2012.8247 N.ar     617 DA      0.0000
   1073 C4        -0.9654    -2.2263  2012.6886 C.ar     617 DA      0.0000
   1074 H5'       -1.4026    -7.2443  2015.8762 H        617 DA      0.0000
   1075 H5''      -0.7210    -5.6240  2015.5648 H        617 DA      0.0000
   1076 H4'       -3.3655    -6.2567  2015.3280 H        617 DA      0.0000
   1077 H3'       -2.3657    -7.5435  2013.1468 H        617 DA      0.0000
   1078 H2'       -3.1165    -5.5523  2011.4064 H        617 DA      0.0000
   1079 H2''      -1.4437    -5.8874  2011.9328 H        617 DA      0.0000
   1080 H1'       -3.2240    -3.6724  2012.6290 H        617 DA      0.0000
   1081 H8         0.3278    -5.1771  2012.5892 H        617 DA      0.0000
   1082 H2        -2.1583     0.7656  2012.8001 H        617 DA      0.0000
   1083 H61        2.4285     0.5639  2012.4635 H        617 DA      0.0000
   1084 H62        2.6871    -0.9635  2011.6619 H        617 DA      0.0000
   1085 P         -5.3606    -6.9092  2012.0001 P.3      616 DA      0.0000
   1086 OP1       -6.8014    -7.1865  2012.5200 O.co2    616 DA      0.0000
   1087 OP2       -4.9608    -8.0078  2011.0664 O.co2    616 DA      0.0000
   1088 O5'       -5.3754    -5.4162  2011.4974 O.3      616 DA      0.0000
   1089 C5'       -6.4033    -4.5125  2011.9532 C.3      616 DA      0.0000
   1090 C4'       -6.1734    -3.1918  2011.2513 C.3      616 DA      0.0000
   1091 O4'       -4.8270    -2.8309  2011.1306 O.3      616 DA      0.0000
   1092 C3'       -6.7659    -3.1387  2009.8438 C.3      616 DA      0.0000
   1093 O3'       -7.8412    -2.1814  2009.8123 O.3      616 DA      0.0000
   1094 C2'       -5.5520    -2.8988  2008.9442 C.3      616 DA      0.0000
   1095 C1'       -4.5985    -2.1702  2009.8420 C.3      616 DA      0.0000
   1096 N9        -3.1783    -2.3207  2009.5424 N.ar     616 DA      0.0000
   1097 C8        -2.4443    -3.4724  2009.3477 C.ar     616 DA      0.0000
   1098 N7        -1.1641    -3.2569  2009.1422 N.ar     616 DA      0.0000
   1099 C5        -1.0364    -1.8836  2009.2168 C.ar     616 DA      0.0000
   1100 C6         0.0827    -1.0315  2009.0833 C.ar     616 DA      0.0000
   1101 N6         1.3167    -1.4625  2008.8401 N.pl3    616 DA      0.0000
   1102 N1        -0.1808     0.3065  2009.2321 N.ar     616 DA      0.0000
   1103 C2        -1.4192     0.7721  2009.4846 C.ar     616 DA      0.0000
   1104 N3        -2.5211     0.0286  2009.6235 N.ar     616 DA      0.0000
   1105 C4        -2.2583    -1.2891  2009.4763 C.ar     616 DA      0.0000
   1106 H5'       -7.3874    -4.9056  2011.6981 H        616 DA      0.0000
   1107 H5''      -6.3264    -4.3772  2013.0320 H        616 DA      0.0000
   1108 H4'       -6.6661    -2.4191  2011.8414 H        616 DA      0.0000
   1109 H3'       -7.1761    -4.1208  2009.6088 H        616 DA      0.0000
   1110 H2'       -5.1251    -3.8423  2008.6043 H        616 DA      0.0000
   1111 H2''      -5.8258    -2.2756  2008.0929 H        616 DA      0.0000
   1112 H1'       -4.8645    -1.1149  2009.9031 H        616 DA      0.0000
   1113 H8        -2.8812    -4.4600  2009.3626 H        616 DA      0.0000
   1114 H2        -1.5319     1.8416  2009.5837 H        616 DA      0.0000
   1115 H61        2.0567    -0.8411  2009.1341 H        616 DA      0.0000
   1116 H62        1.5013    -2.3491  2008.3928 H        616 DA      0.0000
   1117 P         -8.6234    -1.9322  2008.4274 P.3      615 DT      0.0000
   1118 OP1       -9.9207    -1.1860  2008.4855 O.co2    615 DT      0.0000
   1119 OP2       -8.7126    -3.3336  2007.9147 O.co2    615 DT      0.0000
   1120 O5'       -7.5212    -0.8985  2007.7242 O.3      615 DT      0.0000
   1121 C5'       -7.0379     0.0355  2008.7365 C.3      615 DT      0.0000
   1122 C4'       -6.5071     1.2552  2008.0536 C.3      615 DT      0.0000
   1123 O4'       -5.1226     1.2360  2007.8732 O.3      615 DT      0.0000
   1124 C3'       -7.1287     1.5266  2006.6923 C.3      615 DT      0.0000
   1125 O3'       -7.3127     2.9222  2006.4250 O.3      615 DT      0.0000
   1126 C2'       -6.0999     0.8214  2005.7990 C.3      615 DT      0.0000
   1127 C1'       -4.7957     1.2466  2006.4390 C.3      615 DT      0.0000
   1128 N1        -3.7358     0.2469  2006.2091 N.am     615 DT      0.0000
   1129 C2        -2.4370     0.7087  2006.0874 C.2      615 DT      0.0000
   1130 O2        -2.1835     1.9138  2006.1242 O.2      615 DT      0.0000
   1131 N3        -1.4405    -0.2141  2005.9200 N.am     615 DT      0.0000
   1132 C4        -1.6969    -1.5489  2005.8715 C.2      615 DT      0.0000
   1133 O4        -0.7162    -2.3296  2005.6860 O.2      615 DT      0.0000
   1134 C5        -3.0370    -2.0041  2006.0199 C.2      615 DT      0.0000
   1135 C7        -3.3594    -3.4786  2005.9678 C.3      615 DT      0.0000
   1136 C6        -3.9981    -1.0907  2006.1929 C.2      615 DT      0.0000
   1137 H5'       -7.8578     0.3143  2009.3986 H        615 DT      0.0000
   1138 H5''      -6.2431    -0.4335  2009.3166 H        615 DT      0.0000
   1139 H4'       -6.7383     2.1090  2008.6906 H        615 DT      0.0000
   1140 H3'       -8.0870     1.0123  2006.6203 H        615 DT      0.0000
   1141 H2'       -6.2229    -0.2612  2005.8296 H        615 DT      0.0000
   1142 H2''      -6.1638     1.1876  2004.7744 H        615 DT      0.0000
   1143 H1'       -4.4902     2.2383  2006.1051 H        615 DT      0.0000
   1144 H3        -0.4866     0.1054  2005.8299 H        615 DT      0.0000
   1145 H6        -5.0169    -1.4241  2006.3243 H        615 DT      0.0000
   1146 H71       -3.6867    -3.7441  2004.9626 H        615 DT      0.0000
   1147 H72       -4.1544    -3.7017  2006.6794 H        615 DT      0.0000
   1148 H73       -2.4701    -4.0542  2006.2243 H        615 DT      0.0000
   1149 P         -7.8788     3.2884  2004.9351 P.3      614 DT      0.0000
   1150 OP1       -9.2768     3.8918  2005.0831 O.co2    614 DT      0.0000
   1151 OP2       -7.9754     1.9477  2004.2653 O.co2    614 DT      0.0000
   1152 O5'       -6.8791     4.2773  2004.2831 O.3      614 DT      0.0000
   1153 C5'       -6.0893     5.1991  2005.0345 C.3      614 DT      0.0000
   1154 C4'       -4.8185     5.4457  2004.2865 C.3      614 DT      0.0000
   1155 O4'       -3.8663     4.4182  2004.2295 O.3      614 DT      0.0000
   1156 C3'       -4.9346     5.9163  2002.8205 C.3      614 DT      0.0000
   1157 O3'       -3.8109     6.7958  2002.7167 O.3      614 DT      0.0000
   1158 C2'       -4.7118     4.6042  2002.0567 C.3      614 DT      0.0000
   1159 C1'       -3.4955     4.1413  2002.8324 C.3      614 DT      0.0000
   1160 N1        -3.1737     2.7154  2002.7263 N.am     614 DT      0.0000
   1161 C2        -1.8068     2.4065  2002.7256 C.2      614 DT      0.0000
   1162 O2        -0.9537     3.2954  2002.7687 O.2      614 DT      0.0000
   1163 N3        -1.4689     1.0848  2002.6722 N.am     614 DT      0.0000
   1164 C4        -2.3966     0.0877  2002.6124 C.2      614 DT      0.0000
   1165 O4        -1.9818    -1.1087  2002.5500 O.2      614 DT      0.0000
   1166 C5        -3.7766     0.4291  2002.6207 C.2      614 DT      0.0000
   1167 C7        -4.8181    -0.6685  2002.5593 C.3      614 DT      0.0000
   1168 C6        -4.1025     1.7233  2002.6872 C.2      614 DT      0.0000
   1169 H5'       -6.6327     6.1360  2005.1567 H        614 DT      0.0000
   1170 H5''      -5.8630     4.7758  2006.0131 H        614 DT      0.0000
   1171 H4'       -4.3280     6.2640  2004.8138 H        614 DT      0.0000
   1172 H3'       -5.8859     6.3967  2002.5917 H        614 DT      0.0000
   1173 H2'       -4.4950     4.7682  2001.0011 H        614 DT      0.0000
   1174 H2''      -5.5505     3.9207  2002.1883 H        614 DT      0.0000
   1175 H1'       -2.6279     4.7392  2002.5534 H        614 DT      0.0000
   1176 H3        -0.4902     0.8352  2002.6771 H        614 DT      0.0000
   1177 H6        -5.1481     1.9926  2002.7109 H        614 DT      0.0000
   1178 H71       -4.3225    -1.6381  2002.5104 H        614 DT      0.0000
   1179 H72       -5.4374    -0.5323  2001.6727 H        614 DT      0.0000
   1180 H73       -5.4446    -0.6252  2003.4502 H        614 DT      0.0000
   1181 P         -3.5183     7.8013  2001.5705 P.3      613 DC      0.0000
   1182 OP1       -3.1738     9.1617  2002.1796 O.co2    613 DC      0.0000
   1183 OP2       -4.7898     7.9081  2000.7886 O.co2    613 DC      0.0000
   1184 O5'       -2.2601     7.0772  2000.8311 O.3      613 DC      0.0000
   1185 C5'       -0.9888     7.1569  2001.5556 C.3      613 DC      0.0000
   1186 C4'        0.0874     7.2470  2000.5050 C.3      613 DC      0.0000
   1187 O4'        0.6991     6.0020  2000.2598 O.3      613 DC      0.0000
   1188 C3'       -0.3743     7.7615  1999.1406 C.3      613 DC      0.0000
   1189 O3'        0.6012     8.5284  1998.4313 O.3      613 DC      0.0000
   1190 C2'       -0.7589     6.4435  1998.4545 C.3      613 DC      0.0000
   1191 C1'        0.2848     5.4713  1999.0011 C.3      613 DC      0.0000
   1192 N1        -0.3509     4.1380  1999.1189 N.am     613 DC      0.0000
   1193 C2         0.4968     3.0313  1999.1361 C.2      613 DC      0.0000
   1194 O2         1.7262     3.1651  1999.0675 O.2      613 DC      0.0000
   1195 N3        -0.0864     1.7972  1999.2394 N.2      613 DC      0.0000
   1196 C4        -1.4339     1.6387  1999.3101 C.2      613 DC      0.0000
   1197 N4        -1.9552     0.4141  1999.4120 N.pl3    613 DC      0.0000
   1198 C5        -2.2764     2.7850  1999.2850 C.2      613 DC      0.0000
   1199 C6        -1.7028     3.9969  1999.1914 C.2      613 DC      0.0000
   1200 H5'       -0.9712     8.0420  2002.1915 H        613 DC      0.0000
   1201 H5''      -0.8467     6.2607  2002.1595 H        613 DC      0.0000
   1202 H4'        0.8552     7.9271  2000.8738 H        613 DC      0.0000
   1203 H3'       -1.2712     8.3661  1999.2748 H        613 DC      0.0000
   1204 H2'       -0.6885     6.5286  1997.3701 H        613 DC      0.0000
   1205 H2''      -1.7617     6.1356  1998.7505 H        613 DC      0.0000
   1206 H1'        1.1355     5.4188  1998.3217 H        613 DC      0.0000
   1207 H5        -3.3503     2.6839  1999.3398 H        613 DC      0.0000
   1208 H6        -2.3278     4.8775  1999.1733 H        613 DC      0.0000
   1209 H41       -1.3483    -0.3930  1999.4327 H        613 DC      0.0000
   1210 H42       -2.9565     0.2946  1999.4684 H        613 DC      0.0000
   1211 P          0.8350     8.5208  1996.7993 P.3      612 DA      0.0000
   1212 OP1        1.5077     9.8193  1996.4099 O.co2    612 DA      0.0000
   1213 OP2       -0.5260     8.3268  1996.2293 O.co2    612 DA      0.0000
   1214 O5'        1.8975     7.3409  1996.6338 O.3      612 DA      0.0000
   1215 C5'        3.2814     7.5859  1997.0992 C.3      612 DA      0.0000
   1216 C4'        4.0765     6.6340  1996.2220 C.3      612 DA      0.0000
   1217 O4'        3.6791     5.2831  1996.4893 O.3      612 DA      0.0000
   1218 C3'        3.8138     6.8251  1994.7175 C.3      612 DA      0.0000
   1219 O3'        4.8186     6.2083  1993.9285 O.3      612 DA      0.0000
   1220 C2'        2.5585     5.9533  1994.5301 C.3      612 DA      0.0000
   1221 C1'        3.1369     4.7252  1995.2847 C.3      612 DA      0.0000
   1222 N9         2.0026     3.8186  1995.4302 N.ar     612 DA      0.0000
   1223 C8         0.6744     4.1745  1995.5030 C.ar     612 DA      0.0000
   1224 N7        -0.1326     3.1496  1995.6177 N.ar     612 DA      0.0000
   1225 C5         0.7363     2.0438  1995.6113 C.ar     612 DA      0.0000
   1226 C6         0.4718     0.6502  1995.7112 C.ar     612 DA      0.0000
   1227 N6        -0.7542     0.1334  1995.8341 N.pl3    612 DA      0.0000
   1228 N1         1.5828    -0.1376  1995.6761 N.ar     612 DA      0.0000
   1229 C2         2.8273     0.3865  1995.5572 C.ar     612 DA      0.0000
   1230 N3         3.1470     1.6806  1995.4657 N.ar     612 DA      0.0000
   1231 C4         2.0432     2.4478  1995.4932 C.ar     612 DA      0.0000
   1232 H5'        3.5787     8.6212  1996.9325 H        612 DA      0.0000
   1233 H5''       3.3868     7.3195  1998.1509 H        612 DA      0.0000
   1234 H4'        5.1409     6.7502  1996.4259 H        612 DA      0.0000
   1235 H3'        3.6469     7.8680  1994.4479 H        612 DA      0.0000
   1236 H2'        1.6744     6.3711  1995.0117 H        612 DA      0.0000
   1237 H2''       2.3766     5.7306  1993.4787 H        612 DA      0.0000
   1238 H1'        3.9249     4.2552  1994.6963 H        612 DA      0.0000
   1239 H8         0.3319     5.1982  1995.4690 H        612 DA      0.0000
   1240 H2         3.6470    -0.3162  1995.5340 H        612 DA      0.0000
   1241 H61       -1.5591     0.7430  1995.8588 H        612 DA      0.0000
   1242 H62       -0.8761    -0.8669  1995.9022 H        612 DA      0.0000
   1243 P          5.5673     7.0203  1992.7876 P.3      611 DC      0.0000
   1244 OP1        6.6518     7.7446  1993.5679 O.co2    611 DC      0.0000
   1245 OP2        4.6746     7.9309  1992.0620 O.co2    611 DC      0.0000
   1246 O5'        6.0563     5.7903  1991.8117 O.3      611 DC      0.0000
   1247 C5'        6.8000     4.7012  1992.4807 C.3      611 DC      0.0000
   1248 C4'        6.4169     3.3950  1991.8367 C.3      611 DC      0.0000
   1249 O4'        5.3273     2.7394  1992.4738 O.3      611 DC      0.0000
   1250 C3'        6.0192     3.5503  1990.3589 C.3      611 DC      0.0000
   1251 O3'        6.3649     2.4346  1989.5476 O.3      611 DC      0.0000
   1252 C2'        4.4649     3.5992  1990.5245 C.3      611 DC      0.0000
   1253 C1'        4.4418     2.3061  1991.4201 C.3      611 DC      0.0000
   1254 N1         3.0591     1.9839  1991.6580 N.am     611 DC      0.0000
   1255 C2         2.7309     0.6758  1991.9752 C.2      611 DC      0.0000
   1256 O2         3.4630    -0.3103  1992.1156 O.2      611 DC      0.0000
   1257 N3         1.4117     0.3754  1992.1734 N.2      611 DC      0.0000
   1258 C4         0.4284     1.3190  1992.0574 C.2      611 DC      0.0000
   1259 N4        -0.8520     0.9796  1992.2735 N.pl3    611 DC      0.0000
   1260 C5         0.7806     2.6569  1991.7278 C.2      611 DC      0.0000
   1261 C6         2.0773     2.9261  1991.5360 C.2      611 DC      0.0000
   1262 H5'        7.8718     4.8656  1992.3693 H        611 DC      0.0000
   1263 H5''       6.5413     4.6775  1993.5393 H        611 DC      0.0000
   1264 H4'        7.2808     2.7321  1991.8834 H        611 DC      0.0000
   1265 H3'        6.4034     4.4803  1989.9399 H        611 DC      0.0000
   1266 H2'        4.1116     4.4914  1991.0416 H        611 DC      0.0000
   1267 H2''       3.9493     3.4471  1989.5763 H        611 DC      0.0000
   1268 H1'        4.9102     1.4865  1990.8752 H        611 DC      0.0000
   1269 H5         0.0292     3.4272  1991.6356 H        611 DC      0.0000
   1270 H6         2.3607     3.9344  1991.2728 H        611 DC      0.0000
   1271 H41       -1.0885     0.0275  1992.5140 H        611 DC      0.0000
   1272 H42       -1.5792     1.6762  1992.1955 H        611 DC      0.0000
   1273 P         -5.8527    -8.1319  2026.1467 P.3      621 DG      0.0000
   1274 OP1       -7.1879    -8.7791  2026.1452 O.co2    621 DG      0.0000
   1275 OP2       -5.9016    -7.0177  2027.2024 O.co2    621 DG      0.0000
   1276 O5'       -4.5918    -9.0857  2026.3251 O.3      621 DG      0.0000
   1277 C5'       -3.6705    -9.5701  2025.3251 C.3      621 DG      0.0000
   1278 C4'       -2.2617    -9.3249  2025.8239 C.3      621 DG      0.0000
   1279 O4'       -1.7604    -8.0741  2025.4048 O.3      621 DG      0.0000
   1280 C3'       -2.0129    -9.4127  2027.3161 C.3      621 DG      0.0000
   1281 O3'       -0.9434   -10.3456  2027.6281 O.3      621 DG      0.0000
   1282 C2'       -1.7086    -7.9877  2027.7380 C.3      621 DG      0.0000
   1283 C1'       -1.1574    -7.3567  2026.4824 C.3      621 DG      0.0000
   1284 N9        -1.4850    -5.9196  2026.4533 N.ar     621 DG      0.0000
   1285 C8        -2.6880    -5.2946  2026.6822 C.ar     621 DG      0.0000
   1286 N7        -2.6378    -3.9847  2026.5925 N.ar     621 DG      0.0000
   1287 C5        -1.3070    -3.7253  2026.2755 C.ar     621 DG      0.0000
   1288 C6        -0.6096    -2.5129  2026.0496 C.2      621 DG      0.0000
   1289 O6        -1.0517    -1.3639  2026.0708 O.2      621 DG      0.0000
   1290 N1         0.7220    -2.6508  2025.7681 N.am     621 DG      0.0000
   1291 C2         1.3156    -3.7997  2025.7074 C.2      621 DG      0.0000
   1292 N2         2.5480    -3.6500  2025.4106 N.pl3    621 DG      0.0000
   1293 N3         0.7166    -5.0461  2025.9161 N.2      621 DG      0.0000
   1294 C4        -0.5883    -4.9029  2026.1887 C.ar     621 DG      0.0000
   1295 H5'       -3.8254   -10.6373  2025.1664 H        621 DG      0.0000
   1296 H5''      -3.8277    -9.0330  2024.3898 H        621 DG      0.0000
   1297 H4'       -1.6316   -10.0833  2025.3592 H        621 DG      0.0000
   1298 H3'       -2.9270    -9.7420  2027.8101 H        621 DG      0.0000
   1299 H2'       -2.6142    -7.4769  2028.0650 H        621 DG      0.0000
   1300 H2''      -0.9593    -7.9772  2028.5295 H        621 DG      0.0000
   1301 H1'       -0.0757    -7.4872  2026.4504 H        621 DG      0.0000
   1302 H8        -3.5948    -5.8331  2026.9153 H        621 DG      0.0000
   1303 H1         1.2673    -1.8176  2025.5997 H        621 DG      0.0000
   1304 H21        2.9236    -2.7236  2025.2663 H        621 DG      0.0000
   1305 H22        3.1474    -4.4578  2025.3202 H        621 DG      0.0000
   1306 P         -0.2768   -10.4318  2029.0567 P.3      622 DT      0.0000
   1307 OP1        0.0297   -11.8155  2029.5683 O.co2    622 DT      0.0000
   1308 OP2       -1.3987    -9.9147  2029.9753 O.co2    622 DT      0.0000
   1309 O5'        0.9059    -9.4301  2029.0852 O.3      622 DT      0.0000
   1310 C5'        2.2947    -9.8363  2028.9413 C.3      622 DT      0.0000
   1311 C4'        3.0788    -8.5420  2028.9988 C.3      622 DT      0.0000
   1312 O4'        2.2725    -7.4176  2028.7236 O.3      622 DT      0.0000
   1313 C3'        3.7474    -8.2208  2030.3115 C.3      622 DT      0.0000
   1314 O3'        5.1700    -8.2401  2030.1233 O.3      622 DT      0.0000
   1315 C2'        3.2513    -6.8292  2030.7037 C.3      622 DT      0.0000
   1316 C1'        2.9044    -6.2639  2029.3510 C.3      622 DT      0.0000
   1317 N1         1.8933    -5.2109  2029.4476 N.am     622 DT      0.0000
   1318 C2         2.3057    -3.9210  2029.2497 C.2      622 DT      0.0000
   1319 O2         3.4760    -3.6316  2029.0115 O.2      622 DT      0.0000
   1320 N3         1.3521    -2.9422  2029.3307 N.am     622 DT      0.0000
   1321 C4         0.0503    -3.2038  2029.5867 C.2      622 DT      0.0000
   1322 O4        -0.7091    -2.2009  2029.6319 O.2      622 DT      0.0000
   1323 C5        -0.3632    -4.5601  2029.7864 C.2      622 DT      0.0000
   1324 C7        -1.7929    -4.8921  2030.0663 C.3      622 DT      0.0000
   1325 C6         0.5763    -5.5110  2029.7049 C.2      622 DT      0.0000
   1326 H5'        2.5877   -10.5001  2029.7547 H        622 DT      0.0000
   1327 H5''       2.4466   -10.3274  2027.9801 H        622 DT      0.0000
   1328 H4'        3.8542    -8.5894  2028.2342 H        622 DT      0.0000
   1329 H3'        3.4586    -8.9498  2031.0686 H        622 DT      0.0000
   1330 H2'        2.3771    -6.8829  2031.3525 H        622 DT      0.0000
   1331 H2''       4.0477    -6.2516  2031.1729 H        622 DT      0.0000
   1332 H1'        3.7887    -5.9341  2028.8057 H        622 DT      0.0000
   1333 H3         1.6333    -1.9820  2029.1933 H        622 DT      0.0000
   1334 H6         0.2913    -6.5432  2029.8452 H        622 DT      0.0000
   1335 H71       -2.2607    -5.2784  2029.1607 H        622 DT      0.0000
   1336 H72       -2.3174    -3.9936  2030.3910 H        622 DT      0.0000
   1337 H73       -1.8437    -5.6464  2030.8516 H        622 DT      0.0000
   1338 P          5.9733    -8.8422  2031.4032 P.3      623 DG      0.0000
   1339 OP1        7.0946    -9.5852  2030.6882 O.co2    623 DG      0.0000
   1340 OP2        5.0798    -9.7037  2032.1568 O.co2    623 DG      0.0000
   1341 O5'        6.4175    -7.3946  2032.0128 O.3      623 DG      0.0000
   1342 C5'        6.9355    -6.5428  2030.9222 C.3      623 DG      0.0000
   1343 C4'        7.0170    -5.1379  2031.4422 C.3      623 DG      0.0000
   1344 O4'        5.8804    -4.3360  2031.2616 O.3      623 DG      0.0000
   1345 C3'        7.3639    -5.0840  2032.9502 C.3      623 DG      0.0000
   1346 O3'        8.5272    -4.2361  2033.1091 O.3      623 DG      0.0000
   1347 C2'        6.0857    -4.6024  2033.6028 C.3      623 DG      0.0000
   1348 C1'        5.5066    -3.6979  2032.5213 C.3      623 DG      0.0000
   1349 N9         4.0600    -3.5213  2032.6908 N.ar     623 DG      0.0000
   1350 C8         3.1178    -4.4539  2033.0270 C.ar     623 DG      0.0000
   1351 N7         1.8914    -3.9878  2033.1127 N.ar     623 DG      0.0000
   1352 C5         2.0451    -2.6431  2032.7827 C.ar     623 DG      0.0000
   1353 C6         1.0886    -1.5920  2032.6884 C.2      623 DG      0.0000
   1354 O6        -0.1350    -1.6501  2032.8807 O.2      623 DG      0.0000
   1355 N1         1.6203    -0.3678  2032.3533 N.am     623 DG      0.0000
   1356 C2         2.9526    -0.1977  2032.1296 C.2      623 DG      0.0000
   1357 N2         3.2910     1.0610  2031.8208 N.pl3    623 DG      0.0000
   1358 N3         3.8833    -1.1467  2032.2006 N.2      623 DG      0.0000
   1359 C4         3.3660    -2.3434  2032.5272 C.ar     623 DG      0.0000
   1360 H5'        7.9256    -6.8856  2030.6217 H        623 DG      0.0000
   1361 H5''       6.2573    -6.5818  2030.0698 H        623 DG      0.0000
   1362 H4'        7.8352    -4.6510  2030.9116 H        623 DG      0.0000
   1363 H3'        7.5961    -6.0882  2033.3050 H        623 DG      0.0000
   1364 H2'        5.4164    -5.4332  2033.8258 H        623 DG      0.0000
   1365 H2''       6.3052    -4.0318  2034.5052 H        623 DG      0.0000
   1366 H1'        5.9904    -2.7230  2032.5802 H        623 DG      0.0000
   1367 H8         3.3617    -5.4904  2033.2076 H        623 DG      0.0000
   1368 H1         1.0041     0.4282  2032.2710 H        623 DG      0.0000
   1369 H21        2.5805     1.7771  2031.7705 H        623 DG      0.0000
   1370 H22        4.2567     1.2940  2031.6381 H        623 DG      0.0000
   1371 P          9.2212    -4.0509  2034.4975 P.3      624 DA      0.0000
   1372 OP1       10.2915    -5.0314  2034.8529 O.co2    624 DA      0.0000
   1373 OP2        7.9687    -4.3712  2035.3933 O.co2    624 DA      0.0000
   1374 O5'        9.4839    -2.5070  2034.7466 O.3      624 DA      0.0000
   1375 C5'        9.5892    -1.5122  2033.7176 C.3      624 DA      0.0000
   1376 C4'        8.7287    -0.3523  2034.1919 C.3      624 DA      0.0000
   1377 O4'        7.3602    -0.6863  2034.1015 O.3      624 DA      0.0000
   1378 C3'        8.9742     0.1321  2035.6210 C.3      624 DA      0.0000
   1379 O3'        9.0825     1.5697  2035.6732 O.3      624 DA      0.0000
   1380 C2'        7.7393    -0.4027  2036.3564 C.3      624 DA      0.0000
   1381 C1'        6.6928    -0.1628  2035.2788 C.3      624 DA      0.0000
   1382 N9         5.4340    -0.8794  2035.5072 N.ar     624 DA      0.0000
   1383 C8         5.2072    -2.2091  2035.7230 C.ar     624 DA      0.0000
   1384 N7         3.9391    -2.5133  2035.8879 N.ar     624 DA      0.0000
   1385 C5         3.2847    -1.2986  2035.7477 C.ar     624 DA      0.0000
   1386 C6         1.9139    -0.9633  2035.7957 C.ar     624 DA      0.0000
   1387 N6         0.9299    -1.8385  2036.0155 N.pl3    624 DA      0.0000
   1388 N1         1.6310     0.3597  2035.6059 N.ar     624 DA      0.0000
   1389 C2         2.6136     1.2641  2035.3882 C.ar     624 DA      0.0000
   1390 N3         3.9225     1.0216  2035.3299 N.ar     624 DA      0.0000
   1391 C4         4.1826    -0.2852  2035.5168 C.ar     624 DA      0.0000
   1392 H5'        9.2162    -1.9018  2032.7704 H        624 DA      0.0000
   1393 H5''      10.6254    -1.1915  2033.6098 H        624 DA      0.0000
   1394 H4'        8.9088     0.4886  2033.5221 H        624 DA      0.0000
   1395 H3'        9.8777    -0.3268  2036.0224 H        624 DA      0.0000
   1396 H2'        7.8370    -1.4602  2036.6019 H        624 DA      0.0000
   1397 H2''       7.5272     0.1884  2037.2473 H        624 DA      0.0000
   1398 H1'        6.5052     0.9048  2035.1643 H        624 DA      0.0000
   1399 H8         5.9982    -2.9437  2035.7551 H        624 DA      0.0000
   1400 H2         2.3048     2.2893  2035.2468 H        624 DA      0.0000
   1401 H61        1.0138    -2.8403  2035.9181 H        624 DA      0.0000
   1402 H62       -0.0208    -1.5436  2035.8440 H        624 DA      0.0000
   1403 P          9.9755     2.3429  2036.8147 P.3      625 DA      0.0000
   1404 OP1       11.0773     3.1281  2036.1476 O.co2    625 DA      0.0000
   1405 OP2       10.4216     1.2061  2037.6456 O.co2    625 DA      0.0000
   1406 O5'        8.9649     3.4574  2037.3455 O.3      625 DA      0.0000
   1407 C5'        8.4224     4.4876  2036.5212 C.3      625 DA      0.0000
   1408 C4'        7.0382     4.8302  2037.0435 C.3      625 DA      0.0000
   1409 O4'        6.2123     3.7005  2037.0717 O.3      625 DA      0.0000
   1410 C3'        6.9483     5.4855  2038.4108 C.3      625 DA      0.0000
   1411 O3'        6.4061     6.8036  2038.3330 O.3      625 DA      0.0000
   1412 C2'        6.1266     4.4904  2039.2395 C.3      625 DA      0.0000
   1413 C1'        5.3376     3.7299  2038.2457 C.3      625 DA      0.0000
   1414 N9         4.9466     2.3340  2038.5138 N.ar     625 DA      0.0000
   1415 C8         5.7221     1.2059  2038.6290 C.ar     625 DA      0.0000
   1416 N7         5.0381     0.0992  2038.7983 N.ar     625 DA      0.0000
   1417 C5         3.7125     0.5199  2038.7613 C.ar     625 DA      0.0000
   1418 C6         2.4873    -0.1959  2038.8817 C.ar     625 DA      0.0000
   1419 N6         2.3754    -1.5044  2039.0734 N.pl3    625 DA      0.0000
   1420 N1         1.3465     0.5608  2038.7836 N.ar     625 DA      0.0000
   1421 C2         1.4219     1.9102  2038.5945 C.ar     625 DA      0.0000
   1422 N3         2.5276     2.6380  2038.4866 N.ar     625 DA      0.0000
   1423 C4         3.6397     1.8814  2038.5785 C.ar     625 DA      0.0000
   1424 H5'        8.3523     4.1379  2035.4912 H        625 DA      0.0000
   1425 H5''       9.0612     5.3696  2036.5672 H        625 DA      0.0000
   1426 H4'        6.5958     5.5262  2036.3308 H        625 DA      0.0000
   1427 H3'        7.9509     5.5461  2038.8340 H        625 DA      0.0000
   1428 H2'        6.7825     3.8241  2039.7998 H        625 DA      0.0000
   1429 H2''       5.4624     5.0242  2039.9191 H        625 DA      0.0000
   1430 H1'        4.4428     4.3015  2037.9997 H        625 DA      0.0000
   1431 H8         6.8010     1.2280  2038.5841 H        625 DA      0.0000
   1432 H2         0.4843     2.4419  2038.5253 H        625 DA      0.0000
   1433 H61        3.1465    -2.0692  2039.3996 H        625 DA      0.0000
   1434 H62        1.4887    -1.9505  2038.8866 H        625 DA      0.0000
   1435 P          6.8176     8.0529  2039.2892 P.3      626 DT      0.0000
   1436 OP1        6.9593     9.3445  2038.4919 O.co2    626 DT      0.0000
   1437 OP2        7.9613     7.7139  2040.1098 O.co2    626 DT      0.0000
   1438 O5'        5.4137     8.3210  2040.1029 O.3      626 DT      0.0000
   1439 C5'        4.2688     8.1767  2039.1578 C.3      626 DT      0.0000
   1440 C4'        3.2276     7.4228  2039.9455 C.3      626 DT      0.0000
   1441 O4'        3.5387     6.0611  2040.1375 O.3      626 DT      0.0000
   1442 C3'        3.0409     7.9970  2041.3621 C.3      626 DT      0.0000
   1443 O3'        1.9203     8.8620  2041.3638 O.3      626 DT      0.0000
   1444 C2'        2.9054     6.7693  2042.2594 C.3      626 DT      0.0000
   1445 C1'        2.6763     5.6752  2041.2948 C.3      626 DT      0.0000
   1446 N1         3.0238     4.3045  2041.6345 N.am     626 DT      0.0000
   1447 C2         1.9713     3.4051  2041.7725 C.2      626 DT      0.0000
   1448 O2         0.8163     3.8014  2041.6844 O.2      626 DT      0.0000
   1449 N3         2.2684     2.1001  2042.0264 N.am     626 DT      0.0000
   1450 C4         3.5503     1.6453  2042.1466 C.2      626 DT      0.0000
   1451 O4         3.7453     0.4141  2042.4018 O.2      626 DT      0.0000
   1452 C5         4.6189     2.5859  2041.9750 C.2      626 DT      0.0000
   1453 C7         6.0498     2.1326  2042.0625 C.3      626 DT      0.0000
   1454 C6         4.3204     3.8713  2041.7192 C.2      626 DT      0.0000
   1455 H5'        3.8919     9.1540  2038.8562 H        626 DT      0.0000
   1456 H5''       4.5711     7.6013  2038.2828 H        626 DT      0.0000
   1457 H4'        2.2770     7.4899  2039.4164 H        626 DT      0.0000
   1458 H3'        3.9317     8.5572  2041.6465 H        626 DT      0.0000
   1459 H2'        3.8170     6.6011  2042.8328 H        626 DT      0.0000
   1460 H2''       2.0495     6.8761  2042.9258 H        626 DT      0.0000
   1461 H1'        1.6338     5.7024  2040.9774 H        626 DT      0.0000
   1462 H3         1.5093     1.4419  2042.1302 H        626 DT      0.0000
   1463 H6         5.1228     4.5801  2041.5771 H        626 DT      0.0000
   1464 H71        6.0806     1.0640  2042.2756 H        626 DT      0.0000
   1465 H72        6.5513     2.3284  2041.1147 H        626 DT      0.0000
   1466 H73        6.5553     2.6768  2042.8603 H        626 DT      0.0000
   1467 P          1.4415     9.8396  2042.4704 P.3      627 DT      0.0000
   1468 OP1        0.5582    10.9575  2041.8583 O.co2    627 DT      0.0000
   1469 OP2        2.6694    10.3897  2043.1004 O.co2    627 DT      0.0000
   1470 O5'        0.4173     8.9769  2043.3527 O.3      627 DT      0.0000
   1471 C5'       -0.8145     8.6821  2042.6410 C.3      627 DT      0.0000
   1472 C4'       -1.4960     7.5435  2043.3171 C.3      627 DT      0.0000
   1473 O4'       -0.7509     6.3324  2043.2938 O.3      627 DT      0.0000
   1474 C3'       -1.8666     7.8067  2044.7838 C.3      627 DT      0.0000
   1475 O3'       -3.1766     7.3418  2045.0478 O.3      627 DT      0.0000
   1476 C2'       -0.8369     6.9171  2045.5201 C.3      627 DT      0.0000
   1477 C1'       -0.9395     5.7052  2044.6165 C.3      627 DT      0.0000
   1478 N1         0.1040     4.7416  2044.9142 N.am     627 DT      0.0000
   1479 C2        -0.2324     3.3988  2044.9690 C.2      627 DT      0.0000
   1480 O2        -1.4045     3.0697  2044.7806 O.2      627 DT      0.0000
   1481 N3         0.7573     2.4949  2045.2350 N.am     627 DT      0.0000
   1482 C4         2.0485     2.8726  2045.4420 C.2      627 DT      0.0000
   1483 O4         2.9136     1.9782  2045.6653 O.2      627 DT      0.0000
   1484 C5         2.3839     4.2565  2045.3769 C.2      627 DT      0.0000
   1485 C7         3.7853     4.7511  2045.5868 C.3      627 DT      0.0000
   1486 C6         1.3995     5.1306  2045.1158 C.2      627 DT      0.0000
   1487 H5'       -1.4637     9.5576  2042.6534 H        627 DT      0.0000
   1488 H5''      -0.5855     8.4113  2041.6103 H        627 DT      0.0000
   1489 H4'       -2.4257     7.3596  2042.7786 H        627 DT      0.0000
   1490 H3'       -1.7515     8.8584  2045.0462 H        627 DT      0.0000
   1491 H2'        0.1626     7.3517  2045.5188 H        627 DT      0.0000
   1492 H2''      -1.1665     6.6850  2046.5328 H        627 DT      0.0000
   1493 H1'       -1.9253     5.2463  2044.6922 H        627 DT      0.0000
   1494 H3         0.5228     1.5135  2045.2794 H        627 DT      0.0000
   1495 H6         1.6398     6.1821  2045.0627 H        627 DT      0.0000
   1496 H71        4.4437     3.9055  2045.7857 H        627 DT      0.0000
   1497 H72        4.1243     5.2723  2044.6915 H        627 DT      0.0000
   1498 H73        3.8060     5.4351  2046.4352 H        627 DT      0.0000
   1499 P         -4.4928     7.9425  2045.6558 P.3      628 DC      0.0000
   1500 OP1       -5.5482     8.1570  2044.5878 O.co2    628 DC      0.0000
   1501 OP2       -4.0681     9.1479  2046.3907 O.co2    628 DC      0.0000
   1502 O5'       -4.9368     6.6081  2046.4818 O.3      628 DC      0.0000
   1503 C5'       -4.9108     5.5452  2045.4595 C.3      628 DC      0.0000
   1504 C4'       -5.2408     4.2558  2046.1560 C.3      628 DC      0.0000
   1505 O4'       -4.1128     3.4750  2046.4029 O.3      628 DC      0.0000
   1506 C3'       -6.0374     4.4034  2047.4475 C.3      628 DC      0.0000
   1507 O3'       -7.2474     3.6615  2047.3678 O.3      628 DC      0.0000
   1508 C2'       -5.0024     3.9906  2048.4962 C.3      628 DC      0.0000
   1509 C1'       -4.1244     3.0279  2047.7998 C.3      628 DC      0.0000
   1510 N1        -2.6967     3.0650  2048.1319 N.am     628 DC      0.0000
   1511 C2        -2.0993     1.8327  2048.3877 C.2      628 DC      0.0000
   1512 O2        -2.7575     0.7879  2048.3922 O.2      628 DC      0.0000
   1513 N3        -0.7538     1.8267  2048.6616 N.2      628 DC      0.0000
   1514 C4        -0.0199     2.9762  2048.6517 C.2      628 DC      0.0000
   1515 N4         1.2748     2.8671  2048.9285 N.pl3    628 DC      0.0000
   1516 C5        -0.6360     4.2163  2048.3736 C.2      628 DC      0.0000
   1517 C6        -1.9586     4.2058  2048.1088 C.2      628 DC      0.0000
   1518 H5'       -5.6502     5.7523  2044.6859 H        628 DC      0.0000
   1519 H5''      -3.9174     5.4826  2045.0153 H        628 DC      0.0000
   1520 H4'       -5.8673     3.6857  2045.4701 H        628 DC      0.0000
   1521 H3'       -6.2808     5.4561  2047.5908 H        628 DC      0.0000
   1522 H2'       -4.4320     4.8558  2048.8341 H        628 DC      0.0000
   1523 H2''      -5.4938     3.5093  2049.3418 H        628 DC      0.0000
   1524 H1'       -4.5166     2.0141  2047.8808 H        628 DC      0.0000
   1525 H5        -0.0706     5.1365  2048.3730 H        628 DC      0.0000
   1526 H6        -2.4488     5.1379  2047.8698 H        628 DC      0.0000
   1527 H41        1.6740     1.9610  2049.1277 H        628 DC      0.0000
   1528 H42        1.8599     3.6903  2048.9398 H        628 DC      0.0000
   1529 P         -8.5493     3.8407  2048.3198 P.3      629 DA      0.0000
   1530 OP1       -9.7485     3.3590  2047.5261 O.co2    629 DA      0.0000
   1531 OP2       -8.6624     5.2723  2048.6654 O.co2    629 DA      0.0000
   1532 O5'       -8.2274     2.8803  2049.6168 O.3      629 DA      0.0000
   1533 C5'       -7.8667     1.4962  2049.3216 C.3      629 DA      0.0000
   1534 C4'       -7.5056     0.7718  2050.5769 C.3      629 DA      0.0000
   1535 O4'       -6.1017     0.6396  2050.8190 O.3      629 DA      0.0000
   1536 C3'       -8.0004     1.4172  2051.8821 C.3      629 DA      0.0000
   1537 O3'       -7.9917     0.4261  2052.9121 O.3      629 DA      0.0000
   1538 C2'       -6.8703     2.4438  2052.0967 C.3      629 DA      0.0000
   1539 C1'       -5.7069     1.4634  2051.9135 C.3      629 DA      0.0000
   1540 N9        -4.4632     2.2089  2051.8191 N.ar     629 DA      0.0000
   1541 C8        -4.2369     3.5525  2051.7033 C.ar     629 DA      0.0000
   1542 N7        -2.9637     3.9042  2051.6847 N.ar     629 DA      0.0000
   1543 C5        -2.2989     2.6908  2051.7922 C.ar     629 DA      0.0000
   1544 C6        -0.9210     2.3634  2051.8268 C.ar     629 DA      0.0000
   1545 N6         0.0604     3.2433  2051.7415 N.pl3    629 DA      0.0000
   1546 N1        -0.6211     1.0378  2051.9593 N.ar     629 DA      0.0000
   1547 C2        -1.6073     0.0910  2052.0395 C.ar     629 DA      0.0000
   1548 N3        -2.9181     0.3197  2052.0097 N.ar     629 DA      0.0000
   1549 C4        -3.1974     1.6405  2051.8867 C.ar     629 DA      0.0000
   1550 H5'       -8.7136     0.9973  2048.8505 H        629 DA      0.0000
   1551 H5''      -7.0159     1.4828  2048.6403 H        629 DA      0.0000
   1552 H4'       -7.9302    -0.2303  2050.5180 H        629 DA      0.0000
   1553 H3'       -8.9759     1.8902  2051.7685 H        629 DA      0.0000
   1554 H2'       -6.8743     3.2340  2051.3460 H        629 DA      0.0000
   1555 H2''      -6.8907     2.8536  2053.1066 H        629 DA      0.0000
   1556 H1'       -5.6545     0.8359  2052.8031 H        629 DA      0.0000
   1557 H8        -5.0389     4.2723  2051.6323 H        629 DA      0.0000
   1558 H2        -1.2919    -0.9374  2052.1360 H        629 DA      0.0000
   1559 H61        1.0537     3.2091  2051.9216 H        629 DA      0.0000
   1560 H62       -0.2513     4.1510  2051.4268 H        629 DA      0.0000
   1561 P         -9.1756    -0.6413  2053.0525 P.3      630 DC      0.0000
   1562 OP1       -9.9804    -0.7931  2051.8074 O.co2    630 DC      0.0000
   1563 OP2       -9.9727    -0.0822  2054.1954 O.co2    630 DC      0.0000
   1564 O5'       -8.4092    -2.0003  2053.3357 O.3      630 DC      0.0000
   1565 C5'       -7.8363    -2.7874  2052.2480 C.3      630 DC      0.0000
   1566 C4'       -6.6629    -3.4772  2052.9529 C.3      630 DC      0.0000
   1567 O4'       -5.7162    -2.4816  2053.2649 O.3      630 DC      0.0000
   1568 C3'       -7.0471    -4.1602  2054.2628 C.3      630 DC      0.0000
   1569 O3'       -6.6067    -5.5354  2054.3307 O.3      630 DC      0.0000
   1570 C2'       -6.4209    -3.2677  2055.3450 C.3      630 DC      0.0000
   1571 C1'       -5.2216    -2.7389  2054.6689 C.3      630 DC      0.0000
   1572 N1        -4.6584    -1.4383  2055.0217 N.am     630 DC      0.0000
   1573 C2        -3.2667    -1.3687  2054.9948 C.2      630 DC      0.0000
   1574 O2        -2.5594    -2.3466  2054.7879 O.2      630 DC      0.0000
   1575 N3        -2.6966    -0.1600  2055.2479 N.2      630 DC      0.0000
   1576 C4        -3.4292     0.9556  2055.4813 C.2      630 DC      0.0000
   1577 N4        -2.7563     2.0814  2055.7122 N.pl3    630 DC      0.0000
   1578 C5        -4.8490     0.8746  2055.4878 C.2      630 DC      0.0000
   1579 C6        -5.4045    -0.3213  2055.2384 C.2      630 DC      0.0000
   1580 H5'       -8.5518    -3.5141  2051.8631 H        630 DC      0.0000
   1581 H5''      -7.4785    -2.1381  2051.4490 H        630 DC      0.0000
   1582 H4'       -6.2136    -4.2077  2052.2803 H        630 DC      0.0000
   1583 H3'       -8.1316    -4.1328  2054.3687 H        630 DC      0.0000
   1584 H2'       -7.0980    -2.4631  2055.6320 H        630 DC      0.0000
   1585 H2''      -6.1399    -3.8608  2056.2153 H        630 DC      0.0000
   1586 H1'       -4.4364    -3.4949  2054.6556 H        630 DC      0.0000
   1587 H5        -5.4581     1.7441  2055.6863 H        630 DC      0.0000
   1588 H6        -6.4812    -0.3999  2055.2087 H        630 DC      0.0000
   1589 H41       -1.7464     2.0773  2055.7012 H        630 DC      0.0000
   1590 H42       -3.2559     2.9392  2055.8984 H        630 DC      0.0000
   1591 P          7.2931     4.3425  2057.2902 P.3      630 DG      0.0000
   1592 OP1        8.5334     5.1589  2057.4690 O.co2    630 DG      0.0000
   1593 OP2        6.3726     4.8859  2056.2054 O.co2    630 DG      0.0000
   1594 O5'        7.7050     2.7624  2057.0830 O.3      630 DG      0.0000
   1595 C5'        7.4768     1.8153  2058.1788 C.3      630 DG      0.0000
   1596 C4'        7.0176     0.5044  2057.5445 C.3      630 DG      0.0000
   1597 O4'        5.6214     0.4281  2057.4487 O.3      630 DG      0.0000
   1598 C3'        7.5582     0.2597  2056.1382 C.3      630 DG      0.0000
   1599 O3'        7.9288    -1.1126  2055.8712 O.3      630 DG      0.0000
   1600 C2'        6.3975     0.7162  2055.2359 C.3      630 DG      0.0000
   1601 C1'        5.2028     0.2652  2056.0597 C.3      630 DG      0.0000
   1602 N9         4.0233     1.1039  2055.7864 N.ar     630 DG      0.0000
   1603 C8         3.9747     2.4687  2055.6297 C.ar     630 DG      0.0000
   1604 N7         2.7741     2.9357  2055.4113 N.ar     630 DG      0.0000
   1605 C5         1.9703     1.8021  2055.4361 C.ar     630 DG      0.0000
   1606 C6         0.5674     1.6438  2055.2797 C.2      630 DG      0.0000
   1607 O6        -0.2615     2.5438  2055.0828 O.2      630 DG      0.0000
   1608 N1         0.1322     0.3444  2055.3666 N.am     630 DG      0.0000
   1609 C2         0.9728    -0.6960  2055.5873 C.2      630 DG      0.0000
   1610 N2         0.4072    -1.8983  2055.6506 N.pl3    630 DG      0.0000
   1611 N3         2.2987    -0.6018  2055.7450 N.2      630 DG      0.0000
   1612 C4         2.7251     0.6734  2055.6617 C.ar     630 DG      0.0000
   1613 H5'        8.4000     1.6583  2058.7366 H        630 DG      0.0000
   1614 H5''       6.7020     2.1970  2058.8437 H        630 DG      0.0000
   1615 H4'        7.3556    -0.3132  2058.1812 H        630 DG      0.0000
   1616 H3'        8.4205     0.9042  2055.9677 H        630 DG      0.0000
   1617 H2'        6.4015     1.7968  2055.0932 H        630 DG      0.0000
   1618 H2''       6.4250     0.1984  2054.2771 H        630 DG      0.0000
   1619 H1'        4.9769    -0.7812  2055.8545 H        630 DG      0.0000
   1620 H8         4.8504     3.0986  2055.6825 H        630 DG      0.0000
   1621 H1        -0.8545     0.1561  2055.2618 H        630 DG      0.0000
   1622 H21       -0.5918    -1.9931  2055.5355 H        630 DG      0.0000
   1623 H22        0.9766    -2.7163  2055.8138 H        630 DG      0.0000
   1624 P          7.7809    -1.5871  2054.3477 P.3      629 DT      0.0000
   1625 OP1        8.7393    -2.6797  2053.9568 O.co2    629 DT      0.0000
   1626 OP2        8.0978    -0.3183  2053.6472 O.co2    629 DT      0.0000
   1627 O5'        6.2711    -2.1073  2054.2168 O.3      629 DT      0.0000
   1628 C5'        6.0374    -3.5270  2054.4844 C.3      629 DT      0.0000
   1629 C4'        4.8005    -3.9591  2053.7274 C.3      629 DT      0.0000
   1630 O4'        3.7939    -2.9630  2053.7001 O.3      629 DT      0.0000
   1631 C3'        5.0815    -4.3026  2052.2727 C.3      629 DT      0.0000
   1632 O3'        4.3254    -5.4290  2051.7776 O.3      629 DT      0.0000
   1633 C2'        4.7243    -3.0227  2051.5498 C.3      629 DT      0.0000
   1634 C1'        3.4767    -2.6387  2052.3279 C.3      629 DT      0.0000
   1635 N1         3.3140    -1.1842  2052.1766 N.am     629 DT      0.0000
   1636 C2         2.0155    -0.6966  2052.2834 C.2      629 DT      0.0000
   1637 O2         1.0773    -1.4633  2052.4731 O.2      629 DT      0.0000
   1638 N3         1.8442     0.6542  2052.1632 N.am     629 DT      0.0000
   1639 C4         2.8924     1.4973  2051.9456 C.2      629 DT      0.0000
   1640 O4         2.6338     2.7424  2051.8481 O.2      629 DT      0.0000
   1641 C5         4.2105     0.9685  2051.8393 C.2      629 DT      0.0000
   1642 C7         5.3745     1.8895  2051.6103 C.3      629 DT      0.0000
   1643 C6         4.3719    -0.3516  2051.9610 C.2      629 DT      0.0000
   1644 H5'        6.8956    -4.1104  2054.1507 H        629 DT      0.0000
   1645 H5''       5.8847    -3.6783  2055.5530 H        629 DT      0.0000
   1646 H4'        4.3927    -4.8444  2054.2153 H        629 DT      0.0000
   1647 H3'        6.1460    -4.5010  2052.1487 H        629 DT      0.0000
   1648 H2'        5.5085    -2.2712  2051.6414 H        629 DT      0.0000
   1649 H2''       4.4886    -3.2170  2050.5034 H        629 DT      0.0000
   1650 H1'        2.5990    -3.1818  2051.9773 H        629 DT      0.0000
   1651 H3         0.9133     1.0387  2052.2379 H        629 DT      0.0000
   1652 H6         5.3649    -0.7698  2051.8869 H        629 DT      0.0000
   1653 H71        5.0174     2.9170  2051.5416 H        629 DT      0.0000
   1654 H72        6.0747     1.8032  2052.4412 H        629 DT      0.0000
   1655 H73        5.8767     1.6166  2050.6822 H        629 DT      0.0000
   1656 P          5.3952    -6.4311  2050.9992 P.3      628 DG      0.0000
   1657 OP1        5.9296    -7.5208  2051.8704 O.co2    628 DG      0.0000
   1658 OP2        6.3948    -5.4116  2050.5936 O.co2    628 DG      0.0000
   1659 O5'        4.4292    -7.1044  2049.9184 O.3      628 DG      0.0000
   1660 C5'        3.5407    -8.1693  2050.3418 C.3      628 DG      0.0000
   1661 C4'        2.1550    -7.7214  2049.8941 C.3      628 DG      0.0000
   1662 O4'        1.9906    -6.3437  2050.1648 O.3      628 DG      0.0000
   1663 C3'        1.8742    -7.9329  2048.4064 C.3      628 DG      0.0000
   1664 O3'        0.7139    -8.7180  2048.1979 O.3      628 DG      0.0000
   1665 C2'        1.8263    -6.5291  2047.8297 C.3      628 DG      0.0000
   1666 C1'        1.4027    -5.6954  2049.0158 C.3      628 DG      0.0000
   1667 N9         1.8950    -4.3208  2048.8922 N.ar     628 DG      0.0000
   1668 C8         3.1824    -3.8921  2048.7334 C.ar     628 DG      0.0000
   1669 N7         3.2987    -2.5888  2048.6553 N.ar     628 DG      0.0000
   1670 C5         1.9940    -2.1241  2048.7928 C.ar     628 DG      0.0000
   1671 C6         1.4521    -0.8118  2048.8023 C.2      628 DG      0.0000
   1672 O6         2.0680     0.2446  2048.7032 O.2      628 DG      0.0000
   1673 N1         0.0953    -0.7582  2048.9513 N.am     628 DG      0.0000
   1674 C2        -0.6699    -1.8914  2049.0841 C.2      628 DG      0.0000
   1675 N2        -1.9818    -1.6957  2049.2198 N.pl3    628 DG      0.0000
   1676 N3        -0.2247    -3.1520  2049.0884 N.2      628 DG      0.0000
   1677 C4         1.1213    -3.1892  2048.9377 C.ar     628 DG      0.0000
   1678 H5'        3.8133    -9.1099  2049.8631 H        628 DG      0.0000
   1679 H5''       3.5702    -8.2760  2051.4262 H        628 DG      0.0000
   1680 H4'        1.4120    -8.2760  2050.4671 H        628 DG      0.0000
   1681 H3'        2.7246    -8.4549  2047.9678 H        628 DG      0.0000
   1682 H2'        2.8057    -6.2215  2047.4633 H        628 DG      0.0000
   1683 H2''       1.0837    -6.4676  2047.0341 H        628 DG      0.0000
   1684 H1'        0.3161    -5.6959  2049.1028 H        628 DG      0.0000
   1685 H8         4.0258    -4.5644  2048.6773 H        628 DG      0.0000
   1686 H1        -0.3598     0.1434  2048.9641 H        628 DG      0.0000
   1687 H21       -2.3549    -0.7571  2049.2208 H        628 DG      0.0000
   1688 H22       -2.6024    -2.4859  2049.3216 H        628 DG      0.0000
   1689 P         -0.5990    -8.5659  2047.3316 P.3      627 DA      0.0000
   1690 OP1       -1.8108    -9.0894  2048.1129 O.co2    627 DA      0.0000
   1691 OP2       -0.3671    -9.3838  2046.1389 O.co2    627 DA      0.0000
   1692 O5'       -0.8458    -6.9651  2047.1568 O.3      627 DA      0.0000
   1693 C5'       -1.5676    -6.3968  2048.3132 C.3      627 DA      0.0000
   1694 C4'       -2.8789    -5.8695  2047.7854 C.3      627 DA      0.0000
   1695 O4'       -2.8502    -4.4825  2047.5631 O.3      627 DA      0.0000
   1696 C3'       -3.2736    -6.4881  2046.4449 C.3      627 DA      0.0000
   1697 O3'       -4.6476    -6.7841  2046.3697 O.3      627 DA      0.0000
   1698 C2'       -2.7107    -5.4907  2045.4483 C.3      627 DA      0.0000
   1699 C1'       -2.6080    -4.1773  2046.1722 C.3      627 DA      0.0000
   1700 N9        -1.3030    -3.5327  2045.9467 N.ar     627 DA      0.0000
   1701 C8        -0.0689    -4.1173  2045.7603 C.ar     627 DA      0.0000
   1702 N7         0.9102    -3.2644  2045.5644 N.ar     627 DA      0.0000
   1703 C5         0.2788    -2.0300  2045.6513 C.ar     627 DA      0.0000
   1704 C6         0.7818    -0.7122  2045.5456 C.ar     627 DA      0.0000
   1705 N6         2.0540    -0.4254  2045.3332 N.pl3    627 DA      0.0000
   1706 N1        -0.1325     0.2893  2045.6694 N.ar     627 DA      0.0000
   1707 C2        -1.4531     0.0226  2045.8939 C.ar     627 DA      0.0000
   1708 N3        -1.9889    -1.1908  2046.0098 N.ar     627 DA      0.0000
   1709 C4        -1.0706    -2.1777  2045.8736 C.ar     627 DA      0.0000
   1710 H5'       -1.7466    -7.1691  2049.0613 H        627 DA      0.0000
   1711 H5''      -0.9885    -5.5832  2048.7499 H        627 DA      0.0000
   1712 H4'       -3.6602    -6.0891  2048.5131 H        627 DA      0.0000
   1713 H3'       -2.7229    -7.4220  2046.3318 H        627 DA      0.0000
   1714 H2'       -3.3778    -5.3973  2044.5915 H        627 DA      0.0000
   1715 H2''      -1.7230    -5.8119  2045.1178 H        627 DA      0.0000
   1716 H1'       -3.3956    -3.5144  2045.8140 H        627 DA      0.0000
   1717 H8         0.0804    -5.1868  2045.7742 H        627 DA      0.0000
   1718 H2        -2.1193     0.8677  2045.9851 H        627 DA      0.0000
   1719 H61        2.4526     0.4474  2045.6486 H        627 DA      0.0000
   1720 H62        2.6381    -1.0907  2044.8469 H        627 DA      0.0000
   1721 P         -5.6841    -6.6455  2045.1851 P.3      626 DA      0.0000
   1722 OP1       -7.1365    -6.8539  2045.7050 O.co2    626 DA      0.0000
   1723 OP2       -5.3372    -7.7620  2044.2514 O.co2    626 DA      0.0000
   1724 O5'       -5.6277    -5.1535  2044.6824 O.3      626 DA      0.0000
   1725 C5'       -6.6113    -4.2018  2045.1383 C.3      626 DA      0.0000
   1726 C4'       -6.3187    -2.8936  2044.4363 C.3      626 DA      0.0000
   1727 O4'       -4.9566    -2.5973  2044.3156 O.3      626 DA      0.0000
   1728 C3'       -6.9079    -2.8124  2043.0288 C.3      626 DA      0.0000
   1729 O3'       -7.9364    -1.8048  2042.9974 O.3      626 DA      0.0000
   1730 C2'       -5.6840    -2.6306  2042.1293 C.3      626 DA      0.0000
   1731 C1'       -4.6968    -1.9484  2043.0270 C.3      626 DA      0.0000
   1732 N9        -3.2854    -2.1665  2042.7275 N.ar     626 DA      0.0000
   1733 C8        -2.6071    -3.3519  2042.5327 C.ar     626 DA      0.0000
   1734 N7        -1.3182    -3.1977  2042.3273 N.ar     626 DA      0.0000
   1735 C5        -1.1251    -1.8320  2042.4018 C.ar     626 DA      0.0000
   1736 C6         0.0334    -1.0343  2042.2683 C.ar     626 DA      0.0000
   1737 N6         1.2455    -1.5237  2042.0251 N.pl3    626 DA      0.0000
   1738 N1        -0.1660     0.3148  2042.4172 N.ar     626 DA      0.0000
   1739 C2        -1.3808     0.8389  2042.6697 C.ar     626 DA      0.0000
   1740 N3        -2.5169     0.1489  2042.8085 N.ar     626 DA      0.0000
   1741 C4        -2.3173    -1.1798  2042.6613 C.ar     626 DA      0.0000
   1742 H5'       -7.6130    -4.5475  2044.8831 H        626 DA      0.0000
   1743 H5''      -6.5280    -4.0704  2046.2171 H        626 DA      0.0000
   1744 H4'       -6.7740    -2.0983  2045.0265 H        626 DA      0.0000
   1745 H3'       -7.3646    -3.7737  2042.7938 H        626 DA      0.0000
   1746 H2'       -5.3025    -3.5934  2041.7894 H        626 DA      0.0000
   1747 H2''      -5.9277    -1.9950  2041.2779 H        626 DA      0.0000
   1748 H1'       -4.9122    -0.8816  2043.0881 H        626 DA      0.0000
   1749 H8        -3.0907    -4.3175  2042.5477 H        626 DA      0.0000
   1750 H2        -1.4423     1.9126  2042.7687 H        626 DA      0.0000
   1751 H61        2.0142    -0.9383  2042.3191 H        626 DA      0.0000
   1752 H62        1.3875    -2.4180  2041.5778 H        626 DA      0.0000
   1753 P         -8.7057    -1.5185  2041.6124 P.3      625 DT      0.0000
   1754 OP1       -9.9660    -0.7113  2041.6705 O.co2    625 DT      0.0000
   1755 OP2       -8.8617    -2.9142  2041.0998 O.co2    625 DT      0.0000
   1756 O5'       -7.5555    -0.5386  2040.9093 O.3      625 DT      0.0000
   1757 C5'       -7.0282     0.3713  2041.9216 C.3      625 DT      0.0000
   1758 C4'       -6.4398     1.5643  2041.2386 C.3      625 DT      0.0000
   1759 O4'       -5.0578     1.4790  2041.0582 O.3      625 DT      0.0000
   1760 C3'       -7.0478     1.8650  2039.8774 C.3      625 DT      0.0000
   1761 O3'       -7.1650     3.2678  2039.6101 O.3      625 DT      0.0000
   1762 C2'       -6.0537     1.1114  2038.9840 C.3      625 DT      0.0000
   1763 C1'       -4.7307     1.4740  2039.6241 C.3      625 DT      0.0000
   1764 N1        -3.7198     0.4248  2039.3941 N.am     625 DT      0.0000
   1765 C2        -2.4005     0.8242  2039.2725 C.2      625 DT      0.0000
   1766 O2        -2.0897     2.0158  2039.3092 O.2      625 DT      0.0000
   1767 N3        -1.4490    -0.1451  2039.1051 N.am     625 DT      0.0000
   1768 C4        -1.7689    -1.4661  2039.0565 C.2      625 DT      0.0000
   1769 O4        -0.8265    -2.2928  2038.8710 O.2      625 DT      0.0000
   1770 C5        -3.1291    -1.8569  2039.2049 C.2      625 DT      0.0000
   1771 C7        -3.5215    -3.3143  2039.1528 C.3      625 DT      0.0000
   1772 C6        -4.0456    -0.8987  2039.3779 C.2      625 DT      0.0000
   1773 H5'       -7.8338     0.6888  2042.5837 H        625 DT      0.0000
   1774 H5''      -6.2567    -0.1351  2042.5016 H        625 DT      0.0000
   1775 H4'       -6.6300     2.4280  2041.8757 H        625 DT      0.0000
   1776 H3'       -8.0295     1.3970  2039.8054 H        625 DT      0.0000
   1777 H2'       -6.2283     0.0360  2039.0146 H        625 DT      0.0000
   1778 H2''      -6.1001     1.4803  2037.9594 H        625 DT      0.0000
   1779 H1'       -4.3783     2.4500  2039.2901 H        625 DT      0.0000
   1780 H3        -0.4810     0.1285  2039.0149 H        625 DT      0.0000
   1781 H6        -5.0792    -1.1831  2039.5093 H        625 DT      0.0000
   1782 H71       -3.8611    -3.5640  2038.1476 H        625 DT      0.0000
   1783 H72       -4.3263    -3.4993  2039.8644 H        625 DT      0.0000
   1784 H73       -2.6607    -3.9318  2039.4094 H        625 DT      0.0000
   1785 P         -7.7130     3.6605  2038.1202 P.3      624 DT      0.0000
   1786 OP1       -9.0806     4.3300  2038.2682 O.co2    624 DT      0.0000
   1787 OP2       -7.8734     2.3260  2037.4504 O.co2    624 DT      0.0000
   1788 O5'       -6.6672     4.6007  2037.4681 O.3      624 DT      0.0000
   1789 C5'       -5.8343     5.4837  2038.2195 C.3      624 DT      0.0000
   1790 C4'       -4.5532     5.6694  2037.4715 C.3      624 DT      0.0000
   1791 O4'       -3.6511     4.5976  2037.4145 O.3      624 DT      0.0000
   1792 C3'       -4.6467     6.1449  2036.0055 C.3      624 DT      0.0000
   1793 O3'       -3.4823     6.9699  2035.9017 O.3      624 DT      0.0000
   1794 C2'       -4.4867     4.8237  2035.2417 C.3      624 DT      0.0000
   1795 C1'       -3.2940     4.3034  2036.0175 C.3      624 DT      0.0000
   1796 N1        -3.0405     2.8637  2035.9113 N.am     624 DT      0.0000
   1797 C2        -1.6899     2.4900  2035.9107 C.2      624 DT      0.0000
   1798 O2        -0.7954     3.3371  2035.9537 O.2      624 DT      0.0000
   1799 N3        -1.4155     1.1536  2035.8572 N.am     624 DT      0.0000
   1800 C4        -2.3897     0.2020  2035.7975 C.2      624 DT      0.0000
   1801 O4        -2.0324    -1.0129  2035.7351 O.2      624 DT      0.0000
   1802 C5        -3.7518     0.6088  2035.8057 C.2      624 DT      0.0000
   1803 C7        -4.8445    -0.4379  2035.7443 C.3      624 DT      0.0000
   1804 C6        -4.0156     1.9171  2035.8722 C.2      624 DT      0.0000
   1805 H5'       -6.3324     6.4455  2038.3417 H        624 DT      0.0000
   1806 H5''      -5.6284     5.0501  2039.1981 H        624 DT      0.0000
   1807 H4'       -4.0242     6.4634  2037.9988 H        624 DT      0.0000
   1808 H3'       -5.5740     6.6702  2035.7768 H        624 DT      0.0000
   1809 H2'       -4.2624     4.9773  2034.1862 H        624 DT      0.0000
   1810 H2''      -5.3571     4.1810  2035.3733 H        624 DT      0.0000
   1811 H1'       -2.3988     4.8592  2035.7384 H        624 DT      0.0000
   1812 H3        -0.4498     0.8577  2035.8621 H        624 DT      0.0000
   1813 H6        -5.0472     2.2359  2035.8959 H        624 DT      0.0000
   1814 H71       -4.3957    -1.4300  2035.6955 H        624 DT      0.0000
   1815 H72       -5.4566    -0.2723  2034.8577 H        624 DT      0.0000
   1816 H73       -5.4682    -0.3648  2036.6352 H        624 DT      0.0000
   1817 P         -3.1421     7.9603  2034.7555 P.3      623 DC      0.0000
   1818 OP1       -2.7331     9.3027  2035.3646 O.co2    623 DC      0.0000
   1819 OP2       -4.4071     8.1276  2033.9736 O.co2    623 DC      0.0000
   1820 O5'       -1.9198     7.1770  2034.0161 O.3      623 DC      0.0000
   1821 C5'       -0.6462     7.1960  2034.7406 C.3      623 DC      0.0000
   1822 C4'        0.4331     7.2345  2033.6901 C.3      623 DC      0.0000
   1823 O4'        0.9847     5.9618  2033.4448 O.3      623 DC      0.0000
   1824 C3'       -0.0036     7.7706  2032.3256 C.3      623 DC      0.0000
   1825 O3'        1.0074     8.4900  2031.6164 O.3      623 DC      0.0000
   1826 C2'       -0.4506     6.4724  2031.6395 C.3      623 DC      0.0000
   1827 C1'        0.5455     5.4515  2032.1861 C.3      623 DC      0.0000
   1828 N1        -0.1531     4.1500  2032.3039 N.am     623 DC      0.0000
   1829 C2         0.6408     3.0041  2032.3212 C.2      623 DC      0.0000
   1830 O2         1.8753     3.0791  2032.2525 O.2      623 DC      0.0000
   1831 N3        -0.0005     1.7993  2032.4244 N.2      623 DC      0.0000
   1832 C4        -1.3541     1.7053  2032.4951 C.2      623 DC      0.0000
   1833 N4        -1.9332     0.5069  2032.5971 N.pl3    623 DC      0.0000
   1834 C5        -2.1409     2.8905  2032.4700 C.2      623 DC      0.0000
   1835 C6        -1.5101     4.0736  2032.3764 C.2      623 DC      0.0000
   1836 H5'       -0.5864     8.0792  2035.3766 H        623 DC      0.0000
   1837 H5''      -0.5470     6.2939  2035.3445 H        623 DC      0.0000
   1838 H4'        1.2324     7.8773  2034.0588 H        623 DC      0.0000
   1839 H3'       -0.8706     8.4172  2032.4598 H        623 DC      0.0000
   1840 H2'       -0.3762     6.5540  2030.5551 H        623 DC      0.0000
   1841 H2''      -1.4670     6.2126  2031.9355 H        623 DC      0.0000
   1842 H1'        1.3928     5.3584  2031.5067 H        623 DC      0.0000
   1843 H5        -3.2184     2.8406  2032.5248 H        623 DC      0.0000
   1844 H6        -2.0924     4.9830  2032.3583 H        623 DC      0.0000
   1845 H41       -1.3655    -0.3282  2032.6178 H        623 DC      0.0000
   1846 H42       -2.9391     0.4353  2032.6535 H        623 DC      0.0000
   1847 P          1.2405     8.4712  2029.9844 P.3      622 DA      0.0000
   1848 OP1        1.9745     9.7362  2029.5949 O.co2    622 DA      0.0000
   1849 OP2       -0.1281     8.3424  2029.4143 O.co2    622 DA      0.0000
   1850 O5'        2.2456     7.2420  2029.8188 O.3      622 DA      0.0000
   1851 C5'        3.6396     7.4207  2030.2843 C.3      622 DA      0.0000
   1852 C4'        4.3883     6.4319  2029.4070 C.3      622 DA      0.0000
   1853 O4'        3.9270     5.1015  2029.6743 O.3      622 DA      0.0000
   1854 C3'        4.1351     6.6354  2027.9026 C.3      622 DA      0.0000
   1855 O3'        5.1093     5.9714  2027.1135 O.3      622 DA      0.0000
   1856 C2'        2.8396     5.8245  2027.7151 C.3      622 DA      0.0000
   1857 C1'        3.3588     4.5701  2028.4698 C.3      622 DA      0.0000
   1858 N9         2.1825     3.7187  2028.6152 N.ar     622 DA      0.0000
   1859 C8         0.8728     4.1375  2028.6880 C.ar     622 DA      0.0000
   1860 N7         0.0178     3.1524  2028.8027 N.ar     622 DA      0.0000
   1861 C5         0.8330     2.0063  2028.7963 C.ar     622 DA      0.0000
   1862 C6         0.5023     0.6269  2028.8962 C.ar     622 DA      0.0000
   1863 N6        -0.7470     0.1692  2029.0191 N.pl3    622 DA      0.0000
   1864 N1         1.5744    -0.2129  2028.8611 N.ar     622 DA      0.0000
   1865 C2         2.8425     0.2512  2028.7422 C.ar     622 DA      0.0000
   1866 N3         3.2236     1.5286  2028.6507 N.ar     622 DA      0.0000
   1867 C4         2.1577     2.3475  2028.6783 C.ar     622 DA      0.0000
   1868 H5'        3.9860     8.4407  2030.1175 H        622 DA      0.0000
   1869 H5''       3.7322     7.1496  2031.3359 H        622 DA      0.0000
   1870 H4'        5.4571     6.4972  2029.6109 H        622 DA      0.0000
   1871 H3'        4.0182     7.6850  2027.6329 H        622 DA      0.0000
   1872 H2'        1.9765     6.2839  2028.1967 H        622 DA      0.0000
   1873 H2''       2.6473     5.6107  2026.6637 H        622 DA      0.0000
   1874 H1'        4.1234     4.0631  2027.8814 H        622 DA      0.0000
   1875 H8         0.5796     5.1764  2028.6540 H        622 DA      0.0000
   1876 H2         3.6277    -0.4899  2028.7190 H        622 DA      0.0000
   1877 H61       -1.5218     0.8165  2029.0438 H        622 DA      0.0000
   1878 H62       -0.9164    -0.8242  2029.0872 H        622 DA      0.0000
   1879 P          5.8959     6.7467  2025.9726 P.3      621 DC      0.0000
   1880 OP1        7.0137     7.4184  2026.7529 O.co2    621 DC      0.0000
   1881 OP2        5.0476     7.6989  2025.2470 O.co2    621 DC      0.0000
   1882 O5'        6.3256     5.4947  2024.9967 O.3      621 DC      0.0000
   1883 C5'        7.0166     4.3715  2025.6658 C.3      621 DC      0.0000
   1884 C4'        6.5716     3.0850  2025.0217 C.3      621 DC      0.0000
   1885 O4'        5.4519     2.4821  2025.6589 O.3      621 DC      0.0000
   1886 C3'        6.1817     3.2591  2023.5439 C.3      621 DC      0.0000
   1887 O3'        6.4738     2.1282  2022.7326 O.3      621 DC      0.0000
   1888 C2'        4.6315     3.3821  2023.7096 C.3      621 DC      0.0000
   1889 C1'        4.5467     2.0916  2024.6051 C.3      621 DC      0.0000
   1890 N1         3.1502     1.8357  2024.8430 N.am     621 DC      0.0000
   1891 C2         2.7600     0.5447  2025.1602 C.2      621 DC      0.0000
   1892 O2         3.4442    -0.4752  2025.3006 O.2      621 DC      0.0000
   1893 N3         1.4280     0.3076  2025.3584 N.2      621 DC      0.0000
   1894 C4         0.4909     1.2970  2025.2424 C.2      621 DC      0.0000
   1895 N4        -0.8043     1.0191  2025.4585 N.pl3    621 DC      0.0000
   1896 C5         0.9065     2.6167  2024.9128 C.2      621 DC      0.0000
   1897 C6         2.2145     2.8236  2024.7211 C.2      621 DC      0.0000
   1898 H5'        8.0950     4.4845  2025.5543 H        621 DC      0.0000
   1899 H5''       6.7570     4.3601  2026.7244 H        621 DC      0.0000
   1900 H4'        7.4029     2.3816  2025.0685 H        621 DC      0.0000
   1901 H3'        6.6098     4.1697  2023.1249 H        621 DC      0.0000
   1902 H2'        4.3212     4.2901  2024.2267 H        621 DC      0.0000
   1903 H2''       4.1092     3.2548  2022.7613 H        621 DC      0.0000
   1904 H1'        4.9756     1.2505  2024.0602 H        621 DC      0.0000
   1905 H5         0.1927     3.4220  2024.8207 H        621 DC      0.0000
   1906 H6         2.5457     3.8173  2024.4578 H        621 DC      0.0000
   1907 H41       -1.0859     0.0794  2025.6990 H        621 DC      0.0000
   1908 H42       -1.4975     1.7496  2025.3806 H        621 DC      0.0000
   1909 P         -6.2341    -7.8434  2059.3318 P.3      631 DG      0.0000
   1910 OP1       -7.5986    -8.4262  2059.3302 O.co2    631 DG      0.0000
   1911 OP2       -6.2297    -6.7281  2060.3875 O.co2    631 DG      0.0000
   1912 O5'       -5.0200    -8.8563  2059.5102 O.3      631 DG      0.0000
   1913 C5'       -4.1229    -9.3841  2058.5102 C.3      631 DG      0.0000
   1914 C4'       -2.7040    -9.2064  2059.0090 C.3      631 DG      0.0000
   1915 O4'       -2.1436    -7.9809  2058.5898 O.3      631 DG      0.0000
   1916 C3'       -2.4597    -9.3059  2060.5012 C.3      631 DG      0.0000
   1917 O3'       -1.4359   -10.2888  2060.8132 O.3      631 DG      0.0000
   1918 C2'       -2.0878    -7.8971  2060.9231 C.3      631 DG      0.0000
   1919 C1'       -1.5071    -7.2931  2059.6674 C.3      631 DG      0.0000
   1920 N9        -1.7657    -5.8420  2059.6384 N.ar     631 DG      0.0000
   1921 C8        -2.9376    -5.1603  2059.8672 C.ar     631 DG      0.0000
   1922 N7        -2.8249    -3.8543  2059.7775 N.ar     631 DG      0.0000
   1923 C5        -1.4832    -3.6587  2059.4605 C.ar     631 DG      0.0000
   1924 C6        -0.7288    -2.4810  2059.2346 C.2      631 DG      0.0000
   1925 O6        -1.1156    -1.3121  2059.2559 O.2      631 DG      0.0000
   1926 N1         0.5947    -2.6823  2058.9531 N.am     631 DG      0.0000
   1927 C2         1.1328    -3.8582  2058.8924 C.2      631 DG      0.0000
   1928 N2         2.3709    -3.7674  2058.5957 N.pl3    631 DG      0.0000
   1929 N3         0.4750    -5.0746  2059.1012 N.2      631 DG      0.0000
   1930 C4        -0.8216    -4.8693  2059.3737 C.ar     631 DG      0.0000
   1931 H5'       -4.3286   -10.4427  2058.3515 H        631 DG      0.0000
   1932 H5''      -4.2543    -8.8401  2057.5748 H        631 DG      0.0000
   1933 H4'       -2.1109    -9.9940  2058.5443 H        631 DG      0.0000
   1934 H3'       -3.3885    -9.5913  2060.9951 H        631 DG      0.0000
   1935 H2'       -2.9680    -7.3437  2061.2500 H        631 DG      0.0000
   1936 H2''      -1.3388    -7.9224  2061.7146 H        631 DG      0.0000
   1937 H1'       -0.4328    -7.4751  2059.6355 H        631 DG      0.0000
   1938 H8        -3.8690    -5.6550  2060.1003 H        631 DG      0.0000
   1939 H1         1.1792    -1.8760  2058.7847 H        631 DG      0.0000
   1940 H21        2.7904    -2.8600  2058.4513 H        631 DG      0.0000
   1941 H22        2.9311    -4.6028  2058.5052 H        631 DG      0.0000
   1942 P         -0.7742   -10.4067  2062.2417 P.3      632 DT      0.0000
   1943 OP1       -0.5340   -11.8035  2062.7534 O.co2    632 DT      0.0000
   1944 OP2       -1.8702    -9.8367  2063.1604 O.co2    632 DT      0.0000
   1945 O5'        0.4549    -9.4626  2062.2703 O.3      632 DT      0.0000
   1946 C5'        1.8228    -9.9346  2062.1263 C.3      632 DT      0.0000
   1947 C4'        2.6677    -8.6792  2062.1838 C.3      632 DT      0.0000
   1948 O4'        1.9160    -7.5176  2061.9087 O.3      632 DT      0.0000
   1949 C3'        3.3509    -8.3902  2063.4965 C.3      632 DT      0.0000
   1950 O3'        4.7710    -8.4774  2063.3083 O.3      632 DT      0.0000
   1951 C2'        2.9218    -6.9765  2063.8888 C.3      632 DT      0.0000
   1952 C1'        2.6023    -6.3953  2062.5360 C.3      632 DT      0.0000
   1953 N1         1.6426    -5.2953  2062.6327 N.am     632 DT      0.0000
   1954 C2         2.1160    -4.0266  2062.4347 C.2      632 DT      0.0000
   1955 O2         3.2988    -3.7933  2062.1965 O.2      632 DT      0.0000
   1956 N3         1.2102    -3.0034  2062.5158 N.am     632 DT      0.0000
   1957 C4        -0.1027    -3.2026  2062.7717 C.2      632 DT      0.0000
   1958 O4        -0.8133    -2.1645  2062.8170 O.2      632 DT      0.0000
   1959 C5        -0.5803    -4.5376  2062.9714 C.2      632 DT      0.0000
   1960 C7        -2.0242    -4.8010  2063.2513 C.3      632 DT      0.0000
   1961 C6         0.3127    -5.5322  2062.8899 C.2      632 DT      0.0000
   1962 H5'        2.0837   -10.6116  2062.9397 H        632 DT      0.0000
   1963 H5''       1.9511   -10.4323  2061.1651 H        632 DT      0.0000
   1964 H4'        3.4400    -8.7636  2061.4193 H        632 DT      0.0000
   1965 H3'        3.0276    -9.1046  2064.2536 H        632 DT      0.0000
   1966 H2'        2.0460    -6.9884  2064.5376 H        632 DT      0.0000
   1967 H2''       3.7448    -6.4376  2064.3580 H        632 DT      0.0000
   1968 H1'        3.5013    -6.1081  2061.9907 H        632 DT      0.0000
   1969 H3         1.5369    -2.0577  2062.3783 H        632 DT      0.0000
   1970 H6        -0.0212    -6.5497  2063.0303 H        632 DT      0.0000
   1971 H71       -2.5100    -5.1645  2062.3457 H        632 DT      0.0000
   1972 H72       -2.5053    -3.8784  2063.5761 H        632 DT      0.0000
   1973 H73       -2.1110    -5.5520  2064.0366 H        632 DT      0.0000
   1974 P          5.5446    -9.1171  2064.5883 P.3      633 DG      0.0000
   1975 OP1        6.6293    -9.9127  2063.8732 O.co2    633 DG      0.0000
   1976 OP2        4.6111    -9.9350  2065.3418 O.co2    633 DG      0.0000
   1977 O5'        6.0573    -7.6924  2065.1978 O.3      633 DG      0.0000
   1978 C5'        6.6155    -6.8663  2064.1072 C.3      633 DG      0.0000
   1979 C4'        6.7639    -5.4668  2064.6272 C.3      633 DG      0.0000
   1980 O4'        5.6668    -4.6117  2064.4467 O.3      633 DG      0.0000
   1981 C3'        7.1130    -5.4295  2066.1353 C.3      633 DG      0.0000
   1982 O3'        8.3154    -4.6382  2066.2941 O.3      633 DG      0.0000
   1983 C2'        5.8592    -4.8875  2066.7879 C.3      633 DG      0.0000
   1984 C1'        5.3239    -3.9564  2065.7063 C.3      633 DG      0.0000
   1985 N9         3.8874    -3.7110  2065.8758 N.ar     633 DG      0.0000
   1986 C8         2.9018    -4.5976  2066.2120 C.ar     633 DG      0.0000
   1987 N7         1.6990    -4.0734  2066.2978 N.ar     633 DG      0.0000
   1988 C5         1.9166    -2.7377  2065.9678 C.ar     633 DG      0.0000
   1989 C6         1.0114    -1.6421  2065.8734 C.2      633 DG      0.0000
   1990 O6        -0.2136    -1.6418  2066.0657 O.2      633 DG      0.0000
   1991 N1         1.6010    -0.4447  2065.5384 N.am     633 DG      0.0000
   1992 C2         2.9398    -0.3383  2065.3146 C.2      633 DG      0.0000
   1993 N2         3.3379     0.9028  2065.0058 N.pl3    633 DG      0.0000
   1994 N3         3.8241    -1.3306  2065.3856 N.2      633 DG      0.0000
   1995 C4         3.2504    -2.5014  2065.7122 C.ar     633 DG      0.0000
   1996 H5'        7.5881    -7.2559  2063.8067 H        633 DG      0.0000
   1997 H5''       5.9362    -6.8728  2063.2548 H        633 DG      0.0000
   1998 H4'        7.6044    -5.0195  2064.0967 H        633 DG      0.0000
   1999 H3'        7.2970    -6.4437  2066.4900 H        633 DG      0.0000
   2000 H2'        5.1510    -5.6855  2067.0108 H        633 DG      0.0000
   2001 H2''       6.1057    -4.3280  2067.6903 H        633 DG      0.0000
   2002 H1'        5.8537    -3.0057  2065.7652 H        633 DG      0.0000
   2003 H8         3.0959    -5.6446  2066.3927 H        633 DG      0.0000
   2004 H1         1.0234     0.3798  2065.4560 H        633 DG      0.0000
   2005 H21        2.6624     1.6520  2064.9556 H        633 DG      0.0000
   2006 H22        4.3136     1.0894  2064.8231 H        633 DG      0.0000
   2007 P          9.0175    -4.4863  2067.6826 P.3      634 DA      0.0000
   2008 OP1       10.0398    -5.5167  2068.0379 O.co2    634 DA      0.0000
   2009 OP2        7.7510    -4.7464  2068.5783 O.co2    634 DA      0.0000
   2010 O5'        9.3535    -2.9566  2067.9317 O.3      634 DA      0.0000
   2011 C5'        9.5061    -1.9680  2066.9026 C.3      634 DA      0.0000
   2012 C4'        8.7019    -0.7683  2067.3770 C.3      634 DA      0.0000
   2013 O4'        7.3191    -1.0367  2067.2866 O.3      634 DA      0.0000
   2014 C3'        8.9703    -0.2962  2068.8060 C.3      634 DA      0.0000
   2015 O3'        9.1470     1.1346  2068.8583 O.3      634 DA      0.0000
   2016 C2'        7.7113    -0.7715  2069.5414 C.3      634 DA      0.0000
   2017 C1'        6.6774    -0.4819  2068.4638 C.3      634 DA      0.0000
   2018 N9         5.3859    -1.1376  2068.6923 N.ar     634 DA      0.0000
   2019 C8         5.0959    -2.4550  2068.9080 C.ar     634 DA      0.0000
   2020 N7         3.8148    -2.6984  2069.0730 N.ar     634 DA      0.0000
   2021 C5         3.2190    -1.4539  2068.9328 C.ar     634 DA      0.0000
   2022 C6         1.8658    -1.0535  2068.9808 C.ar     634 DA      0.0000
   2023 N6         0.8411    -1.8807  2069.2005 N.pl3    634 DA      0.0000
   2024 N1         1.6463     0.2815  2068.7909 N.ar     634 DA      0.0000
   2025 C2         2.6709     1.1379  2068.5732 C.ar     634 DA      0.0000
   2026 N3         3.9668     0.8333  2068.5149 N.ar     634 DA      0.0000
   2027 C4         4.1642    -0.4844  2068.7018 C.ar     634 DA      0.0000
   2028 H5'        9.1149    -2.3393  2065.9554 H        634 DA      0.0000
   2029 H5''      10.5564    -1.6971  2066.7948 H        634 DA      0.0000
   2030 H4'        8.9219     0.0630  2066.7072 H        634 DA      0.0000
   2031 H3'        9.8509    -0.7977  2069.2074 H        634 DA      0.0000
   2032 H2'        7.7584    -1.8325  2069.7869 H        634 DA      0.0000
   2033 H2''       7.5276    -0.1710  2070.4323 H        634 DA      0.0000
   2034 H1'        6.5410     0.5934  2068.3493 H        634 DA      0.0000
   2035 H8         5.8509    -3.2266  2068.9401 H        634 DA      0.0000
   2036 H2         2.4114     2.1768  2068.4318 H        634 DA      0.0000
   2037 H61        0.8771    -2.8854  2069.1031 H        634 DA      0.0000
   2038 H62       -0.0944    -1.5409  2069.0290 H        634 DA      0.0000
   2039 P         -7.5296     4.0244  2071.3052 P.3      634 DT      0.0000
   2040 OP1       -8.8637     4.7583  2071.4532 O.co2    634 DT      0.0000
   2041 OP2       -7.7534     2.6990  2070.6354 O.co2    634 DT      0.0000
   2042 O5'       -6.4401     4.9135  2070.6532 O.3      634 DT      0.0000
   2043 C5'       -5.5660     5.7558  2071.4046 C.3      634 DT      0.0000
   2044 C4'       -4.2775     5.8802  2070.6566 C.3      634 DT      0.0000
   2045 O4'       -3.4276     4.7666  2070.5996 O.3      634 DT      0.0000
   2046 C3'       -4.3482     6.3596  2069.1905 C.3      634 DT      0.0000
   2047 O3'       -3.1458     7.1281  2069.0868 O.3      634 DT      0.0000
   2048 C2'       -4.2515     5.0323  2068.4268 C.3      634 DT      0.0000
   2049 C1'       -3.0849     4.4556  2069.2025 C.3      634 DT      0.0000
   2050 N1        -2.9004     3.0055  2069.0963 N.am     634 DT      0.0000
   2051 C2        -1.5692     2.5678  2069.0957 C.2      634 DT      0.0000
   2052 O2        -0.6352     3.3712  2069.1387 O.2      634 DT      0.0000
   2053 N3        -1.3588     1.2199  2069.0422 N.am     634 DT      0.0000
   2054 C4        -2.3774     0.3157  2068.9825 C.2      634 DT      0.0000
   2055 O4        -2.0784    -0.9147  2068.9201 O.2      634 DT      0.0000
   2056 C5        -3.7185     0.7871  2068.9907 C.2      634 DT      0.0000
   2057 C7        -4.8599    -0.2063  2068.9293 C.3      634 DT      0.0000
   2058 C6        -3.9196     2.1065  2069.0572 C.2      634 DT      0.0000
   2059 H5'       -6.0177     6.7403  2071.5268 H        634 DT      0.0000
   2060 H5''      -5.3811     5.3129  2072.3831 H        634 DT      0.0000
   2061 H4'       -3.7113     6.6480  2071.1838 H        634 DT      0.0000
   2062 H3'       -5.2494     6.9286  2068.9618 H        634 DT      0.0000
   2063 H2'       -4.0200     5.1749  2067.3712 H        634 DT      0.0000
   2064 H2''      -5.1516     4.4319  2068.5584 H        634 DT      0.0000
   2065 H1'       -2.1642     4.9681  2068.9235 H        634 DT      0.0000
   2066 H3        -0.4084     0.8782  2069.0471 H        634 DT      0.0000
   2067 H6        -4.9348     2.4742  2069.0809 H        634 DT      0.0000
   2068 H71       -4.4589    -1.2187  2068.8805 H        634 DT      0.0000
   2069 H72       -5.4633    -0.0116  2068.0427 H        634 DT      0.0000
   2070 H73       -5.4794    -0.1035  2069.8203 H        634 DT      0.0000
   2071 P         -2.7587     8.1012  2067.9405 P.3      633 DC      0.0000
   2072 OP1       -2.2862     9.4225  2068.5497 O.co2    633 DC      0.0000
   2073 OP2       -4.0143     8.3286  2067.1587 O.co2    633 DC      0.0000
   2074 O5'       -1.5752     7.2604  2067.2011 O.3      633 DC      0.0000
   2075 C5'       -0.3022     7.2186  2067.9256 C.3      633 DC      0.0000
   2076 C4'        0.7777     7.2056  2066.8751 C.3      633 DC      0.0000
   2077 O4'        1.2680     5.9080  2066.6298 O.3      633 DC      0.0000
   2078 C3'        0.3671     7.7619  2065.5107 C.3      633 DC      0.0000
   2079 O3'        1.4114     8.4322  2064.8014 O.3      633 DC      0.0000
   2080 C2'       -0.1413     6.4865  2064.8246 C.3      633 DC      0.0000
   2081 C1'        0.8050     5.4193  2065.3712 C.3      633 DC      0.0000
   2082 N1         0.0451     4.1526  2065.4889 N.am     633 DC      0.0000
   2083 C2         0.7834     2.9701  2065.5062 C.2      633 DC      0.0000
   2084 O2         2.0201     2.9862  2065.4375 O.2      633 DC      0.0000
   2085 N3         0.0853     1.7973  2065.6094 N.2      633 DC      0.0000
   2086 C4        -1.2712     1.7679  2065.6802 C.2      633 DC      0.0000
   2087 N4        -1.9068     0.5986  2065.7821 N.pl3    633 DC      0.0000
   2088 C5        -2.0006     2.9893  2065.6550 C.2      633 DC      0.0000
   2089 C6        -1.3140     4.1410  2065.5614 C.2      633 DC      0.0000
   2090 H5'       -0.2003     8.0980  2068.5616 H        633 DC      0.0000
   2091 H5''      -0.2461     6.3129  2068.5295 H        633 DC      0.0000
   2092 H4'        1.6068     7.8095  2067.2439 H        633 DC      0.0000
   2093 H3'       -0.4681     8.4492  2065.6449 H        633 DC      0.0000
   2094 H2'       -0.0631     6.5645  2063.7402 H        633 DC      0.0000
   2095 H2''      -1.1689     6.2756  2065.1205 H        633 DC      0.0000
   2096 H1'        1.6468     5.2859  2064.6918 H        633 DC      0.0000
   2097 H5        -3.0792     2.9910  2065.7098 H        633 DC      0.0000
   2098 H6        -1.8523     5.0772  2065.5433 H        633 DC      0.0000
   2099 H41       -1.3797    -0.2627  2065.8028 H        633 DC      0.0000
   2100 H42       -2.9150     0.5750  2065.8385 H        633 DC      0.0000
   2101 P          1.6433     8.4024  2063.1694 P.3      632 DA      0.0000
   2102 OP1        2.4367     9.6309  2062.7799 O.co2    632 DA      0.0000
   2103 OP2        0.2701     8.3391  2062.5993 O.co2    632 DA      0.0000
   2104 O5'        2.5885     7.1266  2063.0039 O.3      632 DA      0.0000
   2105 C5'        3.9895     7.2386  2063.4693 C.3      632 DA      0.0000
   2106 C4'        4.6902     6.2153  2062.5920 C.3      632 DA      0.0000
   2107 O4'        4.1659     4.9083  2062.8594 O.3      632 DA      0.0000
   2108 C3'        4.4469     6.4306  2061.0876 C.3      632 DA      0.0000
   2109 O3'        5.3884     5.7208  2060.2986 O.3      632 DA      0.0000
   2110 C2'        3.1143     5.6824  2060.9001 C.3      632 DA      0.0000
   2111 C1'        3.5730     4.4047  2061.6548 C.3      632 DA      0.0000
   2112 N9         2.3574     3.6104  2061.8002 N.ar     632 DA      0.0000
   2113 C8         1.0692     4.0912  2061.8731 C.ar     632 DA      0.0000
   2114 N7         0.1682     3.1479  2061.9877 N.ar     632 DA      0.0000
   2115 C5         0.9277     1.9643  2061.9813 C.ar     632 DA      0.0000
   2116 C6         0.5316     0.6023  2062.0813 C.ar     632 DA      0.0000
   2117 N6        -0.7381     0.2046  2062.2041 N.pl3    632 DA      0.0000
   2118 N1         1.5625    -0.2878  2062.0461 N.ar     632 DA      0.0000
   2119 C2         2.8513     0.1153  2061.9272 C.ar     632 DA      0.0000
   2120 N3         3.2928     1.3730  2061.8358 N.ar     632 DA      0.0000
   2121 C4         2.2672     2.2419  2061.8633 C.ar     632 DA      0.0000
   2122 H5'        4.3841     8.2409  2063.3026 H        632 DA      0.0000
   2123 H5''       4.0691     6.9634  2064.5209 H        632 DA      0.0000
   2124 H4'        5.7609     6.2295  2062.7960 H        632 DA      0.0000
   2125 H3'        4.3802     7.4846  2060.8180 H        632 DA      0.0000
   2126 H2'        2.2740     6.1825  2061.3818 H        632 DA      0.0000
   2127 H2''       2.9119     5.4780  2059.8488 H        632 DA      0.0000
   2128 H1'        4.3126     3.8617  2061.0664 H        632 DA      0.0000
   2129 H8         0.8259     5.1429  2061.8391 H        632 DA      0.0000
   2130 H2         3.6002    -0.6624  2061.9040 H        632 DA      0.0000
   2131 H61       -1.4812     0.8882  2062.2289 H        632 DA      0.0000
   2132 H62       -0.9547    -0.7795  2062.2722 H        632 DA      0.0000
   2133 P          6.2111     6.4577  2059.1577 P.3      631 DC      0.0000
   2134 OP1        7.3597     7.0754  2059.9379 O.co2    631 DC      0.0000
   2135 OP2        5.4092     7.4493  2058.4320 O.co2    631 DC      0.0000
   2136 O5'        6.5806     5.1867  2058.1818 O.3      631 DC      0.0000
   2137 C5'        7.2172     4.0317  2058.8508 C.3      631 DC      0.0000
   2138 C4'        6.7113     2.7680  2058.2068 C.3      631 DC      0.0000
   2139 O4'        5.5642     2.2191  2058.8439 O.3      631 DC      0.0000
   2140 C3'        6.3301     2.9604  2056.7290 C.3      631 DC      0.0000
   2141 O3'        6.5680     1.8169  2055.9176 O.3      631 DC      0.0000
   2142 C2'        4.7876     3.1573  2056.8946 C.3      631 DC      0.0000
   2143 C1'        4.6413     1.8722  2057.7902 C.3      631 DC      0.0000
   2144 N1         3.2342     1.6833  2058.0281 N.am     631 DC      0.0000
   2145 C2         2.7828     0.4124  2058.3452 C.2      631 DC      0.0000
   2146 O2         3.4176    -0.6390  2058.4857 O.2      631 DC      0.0000
   2147 N3         1.4411     0.2391  2058.5434 N.2      631 DC      0.0000
   2148 C4         0.5522     1.2721  2058.4275 C.2      631 DC      0.0000
   2149 N4        -0.7548     1.0563  2058.6435 N.pl3    631 DC      0.0000
   2150 C5         1.0303     2.5704  2058.0978 C.2      631 DC      0.0000
   2151 C6         2.3467     2.7148  2057.9061 C.2      631 DC      0.0000
   2152 H5'        8.2997     4.0932  2058.7393 H        631 DC      0.0000
   2153 H5''       6.9573     4.0328  2059.9094 H        631 DC      0.0000
   2154 H4'        7.5081     2.0257  2058.2535 H        631 DC      0.0000
   2155 H3'        6.8012     3.8496  2056.3099 H        631 DC      0.0000
   2156 H2'        4.5210     4.0790  2057.4117 H        631 DC      0.0000
   2157 H2''       4.2598     3.0550  2055.9464 H        631 DC      0.0000
   2158 H1'        5.0296     1.0117  2057.2453 H        631 DC      0.0000
   2159 H5         0.3557     3.4089  2058.0057 H        631 DC      0.0000
   2160 H6         2.7249     3.6915  2057.6429 H        631 DC      0.0000
   2161 H41       -1.0809     0.1312  2058.8840 H        631 DC      0.0000
   2162 H42       -1.4123     1.8191  2058.5656 H        631 DC      0.0000
@<TRIPOS>BOND
     1      9     34 1
     2     42     66 1
     3     74     99 1
     4    107    131 1
     5    139    163 1
     6    171    195 1
     7    203    227 1
     8    235    257 1
     9    265    289 1
    10    327    352 1
    11    360    384 1
    12    392    417 1
    13    425    449 1
    14    457    481 1
    15    489    513 1
    16    521    545 1
    17    553    575 1
    18    583    607 1
    19      1      2 1
    20      1      3 1
    21      1      4 1
    22      4      5 1
    23      5      6 1
    24      6      7 1
    25      6      8 1
    26      7     11 1
    27      8      9 1
    28      8     10 1
    29     10     11 1
    30     11     12 1
    31     12     13 ar
    32     12     22 ar
    33     13     14 ar
    34     14     15 ar
    35     15     16 1
    36     15     22 ar
    37     16     17 2
    38     16     18 am
    39     18     19 1
    40     19     20 2
    41     19     21 2
    42     21     22 1
    43     34     35 1
    44     34     36 1
    45     34     37 1
    46     37     38 1
    47     38     39 1
    48     39     40 1
    49     39     41 1
    50     40     44 1
    51     41     42 1
    52     41     43 1
    53     43     44 1
    54     44     45 1
    55     45     46 am
    56     45     53 1
    57     46     47 2
    58     46     48 am
    59     48     49 am
    60     49     50 2
    61     49     51 1
    62     51     52 1
    63     51     53 2
    64     66     67 1
    65     66     68 1
    66     66     69 1
    67     69     70 1
    68     70     71 1
    69     71     72 1
    70     71     73 1
    71     72     76 1
    72     73     74 1
    73     73     75 1
    74     75     76 1
    75     76     77 1
    76     77     78 ar
    77     77     87 ar
    78     78     79 ar
    79     79     80 ar
    80     80     81 1
    81     80     87 ar
    82     81     82 2
    83     81     83 am
    84     83     84 1
    85     84     85 2
    86     84     86 2
    87     86     87 1
    88     99    100 1
    89     99    101 1
    90     99    102 1
    91    102    103 1
    92    103    104 1
    93    104    105 1
    94    104    106 1
    95    105    109 1
    96    106    107 1
    97    106    108 1
    98    108    109 1
    99    109    110 1
   100    110    111 ar
   101    110    119 ar
   102    111    112 ar
   103    112    113 ar
   104    113    114 ar
   105    113    119 ar
   106    114    115 1
   107    114    116 ar
   108    116    117 ar
   109    117    118 ar
   110    118    119 ar
   111    131    132 1
   112    131    133 1
   113    131    134 1
   114    134    135 1
   115    135    136 1
   116    136    137 1
   117    136    138 1
   118    137    141 1
   119    138    139 1
   120    138    140 1
   121    140    141 1
   122    141    142 1
   123    142    143 ar
   124    142    151 ar
   125    143    144 ar
   126    144    145 ar
   127    145    146 ar
   128    145    151 ar
   129    146    147 1
   130    146    148 ar
   131    148    149 ar
   132    149    150 ar
   133    150    151 ar
   134    163    164 1
   135    163    165 1
   136    163    166 1
   137    166    167 1
   138    167    168 1
   139    168    169 1
   140    168    170 1
   141    169    173 1
   142    170    171 1
   143    170    172 1
   144    172    173 1
   145    173    174 1
   146    174    175 am
   147    174    182 1
   148    175    176 2
   149    175    177 am
   150    177    178 am
   151    178    179 2
   152    178    180 1
   153    180    181 1
   154    180    182 2
   155    195    196 1
   156    195    197 1
   157    195    198 1
   158    198    199 1
   159    199    200 1
   160    200    201 1
   161    200    202 1
   162    201    205 1
   163    202    203 1
   164    202    204 1
   165    204    205 1
   166    205    206 1
   167    206    207 am
   168    206    214 1
   169    207    208 2
   170    207    209 am
   171    209    210 am
   172    210    211 2
   173    210    212 1
   174    212    213 1
   175    212    214 2
   176    227    228 1
   177    227    229 1
   178    227    230 1
   179    230    231 1
   180    231    232 1
   181    232    233 1
   182    232    234 1
   183    233    237 1
   184    234    235 1
   185    234    236 1
   186    236    237 1
   187    237    238 1
   188    238    239 am
   189    238    245 1
   190    239    240 2
   191    239    241 1
   192    241    242 2
   193    242    243 2
   194    242    244 2
   195    244    245 2
   196    257    258 1
   197    257    259 1
   198    257    260 1
   199    260    261 1
   200    261    262 1
   201    262    263 1
   202    262    264 1
   203    263    267 1
   204    264    265 1
   205    264    266 1
   206    266    267 1
   207    267    268 1
   208    268    269 ar
   209    268    277 ar
   210    269    270 ar
   211    270    271 ar
   212    271    272 ar
   213    271    277 ar
   214    272    273 1
   215    272    274 ar
   216    274    275 ar
   217    275    276 ar
   218    276    277 ar
   219    289    290 1
   220    289    291 1
   221    289    292 1
   222    292    293 1
   223    293    294 1
   224    294    295 1
   225    294    296 1
   226    295    299 1
   227    296    297 1
   228    296    298 1
   229    298    299 1
   230    299    300 1
   231    300    301 am
   232    300    307 1
   233    301    302 2
   234    301    303 1
   235    303    304 2
   236    304    305 2
   237    304    306 2
   238    306    307 2
   239    319    320 1
   240    319    321 1
   241    319    322 1
   242    322    323 1
   243    323    324 1
   244    324    325 1
   245    324    326 1
   246    325    329 1
   247    326    327 1
   248    326    328 1
   249    328    329 1
   250    329    330 1
   251    330    331 ar
   252    330    340 ar
   253    331    332 ar
   254    332    333 ar
   255    333    334 1
   256    333    340 ar
   257    334    335 2
   258    334    336 am
   259    336    337 1
   260    337    338 2
   261    337    339 2
   262    339    340 1
   263    352    353 1
   264    352    354 1
   265    352    355 1
   266    355    356 1
   267    356    357 1
   268    357    358 1
   269    357    359 1
   270    358    362 1
   271    359    360 1
   272    359    361 1
   273    361    362 1
   274    362    363 1
   275    363    364 am
   276    363    371 1
   277    364    365 2
   278    364    366 am
   279    366    367 am
   280    367    368 2
   281    367    369 1
   282    369    370 1
   283    369    371 2
   284    384    385 1
   285    384    386 1
   286    384    387 1
   287    387    388 1
   288    388    389 1
   289    389    390 1
   290    389    391 1
   291    390    394 1
   292    391    392 1
   293    391    393 1
   294    393    394 1
   295    394    395 1
   296    395    396 ar
   297    395    405 ar
   298    396    397 ar
   299    397    398 ar
   300    398    399 1
   301    398    405 ar
   302    399    400 2
   303    399    401 am
   304    401    402 1
   305    402    403 2
   306    402    404 2
   307    404    405 1
   308    417    418 1
   309    417    419 1
   310    417    420 1
   311    420    421 1
   312    421    422 1
   313    422    423 1
   314    422    424 1
   315    423    427 1
   316    424    425 1
   317    424    426 1
   318    426    427 1
   319    427    428 1
   320    428    429 ar
   321    428    437 ar
   322    429    430 ar
   323    430    431 ar
   324    431    432 ar
   325    431    437 ar
   326    432    433 1
   327    432    434 ar
   328    434    435 ar
   329    435    436 ar
   330    436    437 ar
   331    449    450 1
   332    449    451 1
   333    449    452 1
   334    452    453 1
   335    453    454 1
   336    454    455 1
   337    454    456 1
   338    455    459 1
   339    456    457 1
   340    456    458 1
   341    458    459 1
   342    459    460 1
   343    460    461 ar
   344    460    469 ar
   345    461    462 ar
   346    462    463 ar
   347    463    464 ar
   348    463    469 ar
   349    464    465 1
   350    464    466 ar
   351    466    467 ar
   352    467    468 ar
   353    468    469 ar
   354    481    482 1
   355    481    483 1
   356    481    484 1
   357    484    485 1
   358    485    486 1
   359    486    487 1
   360    486    488 1
   361    487    491 1
   362    488    489 1
   363    488    490 1
   364    490    491 1
   365    491    492 1
   366    492    493 am
   367    492    500 1
   368    493    494 2
   369    493    495 am
   370    495    496 am
   371    496    497 2
   372    496    498 1
   373    498    499 1
   374    498    500 2
   375    513    514 1
   376    513    515 1
   377    513    516 1
   378    516    517 1
   379    517    518 1
   380    518    519 1
   381    518    520 1
   382    519    523 1
   383    520    521 1
   384    520    522 1
   385    522    523 1
   386    523    524 1
   387    524    525 am
   388    524    532 1
   389    525    526 2
   390    525    527 am
   391    527    528 am
   392    528    529 2
   393    528    530 1
   394    530    531 1
   395    530    532 2
   396    545    546 1
   397    545    547 1
   398    545    548 1
   399    548    549 1
   400    549    550 1
   401    550    551 1
   402    550    552 1
   403    551    555 1
   404    552    553 1
   405    552    554 1
   406    554    555 1
   407    555    556 1
   408    556    557 am
   409    556    563 1
   410    557    558 2
   411    557    559 1
   412    559    560 2
   413    560    561 2
   414    560    562 2
   415    562    563 2
   416    575    576 1
   417    575    577 1
   418    575    578 1
   419    578    579 1
   420    579    580 1
   421    580    581 1
   422    580    582 1
   423    581    585 1
   424    582    583 1
   425    582    584 1
   426    584    585 1
   427    585    586 1
   428    586    587 ar
   429    586    595 ar
   430    587    588 ar
   431    588    589 ar
   432    589    590 ar
   433    589    595 ar
   434    590    591 1
   435    590    592 ar
   436    592    593 ar
   437    593    594 ar
   438    594    595 ar
   439    607    608 1
   440    607    609 1
   441    607    610 1
   442    610    611 1
   443    611    612 1
   444    612    613 1
   445    612    614 1
   446    613    617 1
   447    614    615 1
   448    614    616 1
   449    616    617 1
   450    617    618 1
   451    618    619 am
   452    618    625 1
   453    619    620 2
   454    619    621 1
   455    621    622 2
   456    622    623 2
   457    622    624 2
   458    624    625 2
   459     23      5 1
   460     24      5 1
   461     25      6 1
   462     26      8 1
   463     27     10 1
   464     28     10 1
   465     29     11 1
   466     30     13 1
   467     31     18 1
   468     54     38 1
   469     55     38 1
   470     56     39 1
   471     57     41 1
   472     58     43 1
   473     59     43 1
   474     60     44 1
   475     61     48 1
   476     62     53 1
   477     88     70 1
   478     89     70 1
   479     90     71 1
   480     91     73 1
   481     92     75 1
   482     93     75 1
   483     94     76 1
   484     95     78 1
   485     96     83 1
   486    120    103 1
   487    121    103 1
   488    122    104 1
   489    123    106 1
   490    124    108 1
   491    125    108 1
   492    126    109 1
   493    127    111 1
   494    128    117 1
   495    152    135 1
   496    153    135 1
   497    154    136 1
   498    155    138 1
   499    156    140 1
   500    157    140 1
   501    158    141 1
   502    159    143 1
   503    160    149 1
   504    183    167 1
   505    184    167 1
   506    185    168 1
   507    186    170 1
   508    187    172 1
   509    188    172 1
   510    189    173 1
   511    190    177 1
   512    191    182 1
   513    215    199 1
   514    216    199 1
   515    217    200 1
   516    218    202 1
   517    219    204 1
   518    220    204 1
   519    221    205 1
   520    222    209 1
   521    223    214 1
   522    246    231 1
   523    247    231 1
   524    248    232 1
   525    249    234 1
   526    250    236 1
   527    251    236 1
   528    252    237 1
   529    253    244 1
   530    254    245 1
   531    278    261 1
   532    279    261 1
   533    280    262 1
   534    281    264 1
   535    282    266 1
   536    283    266 1
   537    284    267 1
   538    285    269 1
   539    286    275 1
   540    308    293 1
   541    309    293 1
   542    310    294 1
   543    311    296 1
   544    312    298 1
   545    313    298 1
   546    314    299 1
   547    315    306 1
   548    316    307 1
   549    341    323 1
   550    342    323 1
   551    343    324 1
   552    344    326 1
   553    345    328 1
   554    346    328 1
   555    347    329 1
   556    348    331 1
   557    349    336 1
   558    372    356 1
   559    373    356 1
   560    374    357 1
   561    375    359 1
   562    376    361 1
   563    377    361 1
   564    378    362 1
   565    379    366 1
   566    380    371 1
   567    406    388 1
   568    407    388 1
   569    408    389 1
   570    409    391 1
   571    410    393 1
   572    411    393 1
   573    412    394 1
   574    413    396 1
   575    414    401 1
   576    438    421 1
   577    439    421 1
   578    440    422 1
   579    441    424 1
   580    442    426 1
   581    443    426 1
   582    444    427 1
   583    445    429 1
   584    446    435 1
   585    470    453 1
   586    471    453 1
   587    472    454 1
   588    473    456 1
   589    474    458 1
   590    475    458 1
   591    476    459 1
   592    477    461 1
   593    478    467 1
   594    501    485 1
   595    502    485 1
   596    503    486 1
   597    504    488 1
   598    505    490 1
   599    506    490 1
   600    507    491 1
   601    508    495 1
   602    509    500 1
   603    533    517 1
   604    534    517 1
   605    535    518 1
   606    536    520 1
   607    537    522 1
   608    538    522 1
   609    539    523 1
   610    540    527 1
   611    541    532 1
   612    564    549 1
   613    565    549 1
   614    566    550 1
   615    567    552 1
   616    568    554 1
   617    569    554 1
   618    570    555 1
   619    571    562 1
   620    572    563 1
   621    596    579 1
   622    597    579 1
   623    598    580 1
   624    599    582 1
   625    600    584 1
   626    601    584 1
   627    602    585 1
   628    603    587 1
   629    604    593 1
   630    626    611 1
   631    627    611 1
   632    628    612 1
   633    629    614 1
   634    630    616 1
   635    631    616 1
   636    632    617 1
   637    633    624 1
   638    634    625 1
   639     32     20 1
   640     33     20 1
   641     97     85 1
   642     98     85 1
   643    255    243 1
   644    256    243 1
   645    317    305 1
   646    318    305 1
   647    350    338 1
   648    351    338 1
   649    415    403 1
   650    416    403 1
   651    573    561 1
   652    574    561 1
   653    635    623 1
   654    636    623 1
   655    129    115 1
   656    130    115 1
   657    161    147 1
   658    162    147 1
   659    287    273 1
   660    288    273 1
   661    447    433 1
   662    448    433 1
   663    479    465 1
   664    480    465 1
   665    605    591 1
   666    606    591 1
   667     63     52 1
   668     64     52 1
   669     65     52 1
   670    192    181 1
   671    193    181 1
   672    194    181 1
   673    224    213 1
   674    225    213 1
   675    226    213 1
   676    381    370 1
   677    382    370 1
   678    383    370 1
   679    510    499 1
   680    511    499 1
   681    512    499 1
   682    542    531 1
   683    543    531 1
   684    544    531 1
   685    297    637 1
   686    319   1251 1
   687    645    670 1
   688    678    702 1
   689    710    735 1
   690    743    767 1
   691    775    799 1
   692    807    831 1
   693    839    863 1
   694    871    893 1
   695    901    925 1
   696    963    988 1
   697    996   1020 1
   698   1028   1053 1
   699   1061   1085 1
   700   1093   1117 1
   701   1125   1149 1
   702   1157   1181 1
   703   1189   1211 1
   704   1219   1243 1
   705    637    638 1
   706    637    639 1
   707    637    640 1
   708    640    641 1
   709    641    642 1
   710    642    643 1
   711    642    644 1
   712    643    647 1
   713    644    645 1
   714    644    646 1
   715    646    647 1
   716    647    648 1
   717    648    649 ar
   718    648    658 ar
   719    649    650 ar
   720    650    651 ar
   721    651    652 1
   722    651    658 ar
   723    652    653 2
   724    652    654 am
   725    654    655 1
   726    655    656 2
   727    655    657 2
   728    657    658 1
   729    670    671 1
   730    670    672 1
   731    670    673 1
   732    673    674 1
   733    674    675 1
   734    675    676 1
   735    675    677 1
   736    676    680 1
   737    677    678 1
   738    677    679 1
   739    679    680 1
   740    680    681 1
   741    681    682 am
   742    681    689 1
   743    682    683 2
   744    682    684 am
   745    684    685 am
   746    685    686 2
   747    685    687 1
   748    687    688 1
   749    687    689 2
   750    702    703 1
   751    702    704 1
   752    702    705 1
   753    705    706 1
   754    706    707 1
   755    707    708 1
   756    707    709 1
   757    708    712 1
   758    709    710 1
   759    709    711 1
   760    711    712 1
   761    712    713 1
   762    713    714 ar
   763    713    723 ar
   764    714    715 ar
   765    715    716 ar
   766    716    717 1
   767    716    723 ar
   768    717    718 2
   769    717    719 am
   770    719    720 1
   771    720    721 2
   772    720    722 2
   773    722    723 1
   774    735    736 1
   775    735    737 1
   776    735    738 1
   777    738    739 1
   778    739    740 1
   779    740    741 1
   780    740    742 1
   781    741    745 1
   782    742    743 1
   783    742    744 1
   784    744    745 1
   785    745    746 1
   786    746    747 ar
   787    746    755 ar
   788    747    748 ar
   789    748    749 ar
   790    749    750 ar
   791    749    755 ar
   792    750    751 1
   793    750    752 ar
   794    752    753 ar
   795    753    754 ar
   796    754    755 ar
   797    767    768 1
   798    767    769 1
   799    767    770 1
   800    770    771 1
   801    771    772 1
   802    772    773 1
   803    772    774 1
   804    773    777 1
   805    774    775 1
   806    774    776 1
   807    776    777 1
   808    777    778 1
   809    778    779 ar
   810    778    787 ar
   811    779    780 ar
   812    780    781 ar
   813    781    782 ar
   814    781    787 ar
   815    782    783 1
   816    782    784 ar
   817    784    785 ar
   818    785    786 ar
   819    786    787 ar
   820    799    800 1
   821    799    801 1
   822    799    802 1
   823    802    803 1
   824    803    804 1
   825    804    805 1
   826    804    806 1
   827    805    809 1
   828    806    807 1
   829    806    808 1
   830    808    809 1
   831    809    810 1
   832    810    811 am
   833    810    818 1
   834    811    812 2
   835    811    813 am
   836    813    814 am
   837    814    815 2
   838    814    816 1
   839    816    817 1
   840    816    818 2
   841    831    832 1
   842    831    833 1
   843    831    834 1
   844    834    835 1
   845    835    836 1
   846    836    837 1
   847    836    838 1
   848    837    841 1
   849    838    839 1
   850    838    840 1
   851    840    841 1
   852    841    842 1
   853    842    843 am
   854    842    850 1
   855    843    844 2
   856    843    845 am
   857    845    846 am
   858    846    847 2
   859    846    848 1
   860    848    849 1
   861    848    850 2
   862    863    864 1
   863    863    865 1
   864    863    866 1
   865    866    867 1
   866    867    868 1
   867    868    869 1
   868    868    870 1
   869    869    873 1
   870    870    871 1
   871    870    872 1
   872    872    873 1
   873    873    874 1
   874    874    875 am
   875    874    881 1
   876    875    876 2
   877    875    877 1
   878    877    878 2
   879    878    879 2
   880    878    880 2
   881    880    881 2
   882    893    894 1
   883    893    895 1
   884    893    896 1
   885    896    897 1
   886    897    898 1
   887    898    899 1
   888    898    900 1
   889    899    903 1
   890    900    901 1
   891    900    902 1
   892    902    903 1
   893    903    904 1
   894    904    905 ar
   895    904    913 ar
   896    905    906 ar
   897    906    907 ar
   898    907    908 ar
   899    907    913 ar
   900    908    909 1
   901    908    910 ar
   902    910    911 ar
   903    911    912 ar
   904    912    913 ar
   905    925    926 1
   906    925    927 1
   907    925    928 1
   908    928    929 1
   909    929    930 1
   910    930    931 1
   911    930    932 1
   912    931    935 1
   913    932    933 1
   914    932    934 1
   915    934    935 1
   916    935    936 1
   917    936    937 am
   918    936    943 1
   919    937    938 2
   920    937    939 1
   921    939    940 2
   922    940    941 2
   923    940    942 2
   924    942    943 2
   925    955    956 1
   926    955    957 1
   927    955    958 1
   928    958    959 1
   929    959    960 1
   930    960    961 1
   931    960    962 1
   932    961    965 1
   933    962    963 1
   934    962    964 1
   935    964    965 1
   936    965    966 1
   937    966    967 ar
   938    966    976 ar
   939    967    968 ar
   940    968    969 ar
   941    969    970 1
   942    969    976 ar
   943    970    971 2
   944    970    972 am
   945    972    973 1
   946    973    974 2
   947    973    975 2
   948    975    976 1
   949    988    989 1
   950    988    990 1
   951    988    991 1
   952    991    992 1
   953    992    993 1
   954    993    994 1
   955    993    995 1
   956    994    998 1
   957    995    996 1
   958    995    997 1
   959    997    998 1
   960    998    999 1
   961    999   1000 am
   962    999   1007 1
   963   1000   1001 2
   964   1000   1002 am
   965   1002   1003 am
   966   1003   1004 2
   967   1003   1005 1
   968   1005   1006 1
   969   1005   1007 2
   970   1020   1021 1
   971   1020   1022 1
   972   1020   1023 1
   973   1023   1024 1
   974   1024   1025 1
   975   1025   1026 1
   976   1025   1027 1
   977   1026   1030 1
   978   1027   1028 1
   979   1027   1029 1
   980   1029   1030 1
   981   1030   1031 1
   982   1031   1032 ar
   983   1031   1041 ar
   984   1032   1033 ar
   985   1033   1034 ar
   986   1034   1035 1
   987   1034   1041 ar
   988   1035   1036 2
   989   1035   1037 am
   990   1037   1038 1
   991   1038   1039 2
   992   1038   1040 2
   993   1040   1041 1
   994   1053   1054 1
   995   1053   1055 1
   996   1053   1056 1
   997   1056   1057 1
   998   1057   1058 1
   999   1058   1059 1
  1000   1058   1060 1
  1001   1059   1063 1
  1002   1060   1061 1
  1003   1060   1062 1
  1004   1062   1063 1
  1005   1063   1064 1
  1006   1064   1065 ar
  1007   1064   1073 ar
  1008   1065   1066 ar
  1009   1066   1067 ar
  1010   1067   1068 ar
  1011   1067   1073 ar
  1012   1068   1069 1
  1013   1068   1070 ar
  1014   1070   1071 ar
  1015   1071   1072 ar
  1016   1072   1073 ar
  1017   1085   1086 1
  1018   1085   1087 1
  1019   1085   1088 1
  1020   1088   1089 1
  1021   1089   1090 1
  1022   1090   1091 1
  1023   1090   1092 1
  1024   1091   1095 1
  1025   1092   1093 1
  1026   1092   1094 1
  1027   1094   1095 1
  1028   1095   1096 1
  1029   1096   1097 ar
  1030   1096   1105 ar
  1031   1097   1098 ar
  1032   1098   1099 ar
  1033   1099   1100 ar
  1034   1099   1105 ar
  1035   1100   1101 1
  1036   1100   1102 ar
  1037   1102   1103 ar
  1038   1103   1104 ar
  1039   1104   1105 ar
  1040   1117   1118 1
  1041   1117   1119 1
  1042   1117   1120 1
  1043   1120   1121 1
  1044   1121   1122 1
  1045   1122   1123 1
  1046   1122   1124 1
  1047   1123   1127 1
  1048   1124   1125 1
  1049   1124   1126 1
  1050   1126   1127 1
  1051   1127   1128 1
  1052   1128   1129 am
  1053   1128   1136 1
  1054   1129   1130 2
  1055   1129   1131 am
  1056   1131   1132 am
  1057   1132   1133 2
  1058   1132   1134 1
  1059   1134   1135 1
  1060   1134   1136 2
  1061   1149   1150 1
  1062   1149   1151 1
  1063   1149   1152 1
  1064   1152   1153 1
  1065   1153   1154 1
  1066   1154   1155 1
  1067   1154   1156 1
  1068   1155   1159 1
  1069   1156   1157 1
  1070   1156   1158 1
  1071   1158   1159 1
  1072   1159   1160 1
  1073   1160   1161 am
  1074   1160   1168 1
  1075   1161   1162 2
  1076   1161   1163 am
  1077   1163   1164 am
  1078   1164   1165 2
  1079   1164   1166 1
  1080   1166   1167 1
  1081   1166   1168 2
  1082   1181   1182 1
  1083   1181   1183 1
  1084   1181   1184 1
  1085   1184   1185 1
  1086   1185   1186 1
  1087   1186   1187 1
  1088   1186   1188 1
  1089   1187   1191 1
  1090   1188   1189 1
  1091   1188   1190 1
  1092   1190   1191 1
  1093   1191   1192 1
  1094   1192   1193 am
  1095   1192   1199 1
  1096   1193   1194 2
  1097   1193   1195 1
  1098   1195   1196 2
  1099   1196   1197 2
  1100   1196   1198 2
  1101   1198   1199 2
  1102   1211   1212 1
  1103   1211   1213 1
  1104   1211   1214 1
  1105   1214   1215 1
  1106   1215   1216 1
  1107   1216   1217 1
  1108   1216   1218 1
  1109   1217   1221 1
  1110   1218   1219 1
  1111   1218   1220 1
  1112   1220   1221 1
  1113   1221   1222 1
  1114   1222   1223 ar
  1115   1222   1231 ar
  1116   1223   1224 ar
  1117   1224   1225 ar
  1118   1225   1226 ar
  1119   1225   1231 ar
  1120   1226   1227 1
  1121   1226   1228 ar
  1122   1228   1229 ar
  1123   1229   1230 ar
  1124   1230   1231 ar
  1125   1243   1244 1
  1126   1243   1245 1
  1127   1243   1246 1
  1128   1246   1247 1
  1129   1247   1248 1
  1130   1248   1249 1
  1131   1248   1250 1
  1132   1249   1253 1
  1133   1250   1251 1
  1134   1250   1252 1
  1135   1252   1253 1
  1136   1253   1254 1
  1137   1254   1255 am
  1138   1254   1261 1
  1139   1255   1256 2
  1140   1255   1257 1
  1141   1257   1258 2
  1142   1258   1259 2
  1143   1258   1260 2
  1144   1260   1261 2
  1145    659    641 1
  1146    660    641 1
  1147    661    642 1
  1148    662    644 1
  1149    663    646 1
  1150    664    646 1
  1151    665    647 1
  1152    666    649 1
  1153    667    654 1
  1154    690    674 1
  1155    691    674 1
  1156    692    675 1
  1157    693    677 1
  1158    694    679 1
  1159    695    679 1
  1160    696    680 1
  1161    697    684 1
  1162    698    689 1
  1163    724    706 1
  1164    725    706 1
  1165    726    707 1
  1166    727    709 1
  1167    728    711 1
  1168    729    711 1
  1169    730    712 1
  1170    731    714 1
  1171    732    719 1
  1172    756    739 1
  1173    757    739 1
  1174    758    740 1
  1175    759    742 1
  1176    760    744 1
  1177    761    744 1
  1178    762    745 1
  1179    763    747 1
  1180    764    753 1
  1181    788    771 1
  1182    789    771 1
  1183    790    772 1
  1184    791    774 1
  1185    792    776 1
  1186    793    776 1
  1187    794    777 1
  1188    795    779 1
  1189    796    785 1
  1190    819    803 1
  1191    820    803 1
  1192    821    804 1
  1193    822    806 1
  1194    823    808 1
  1195    824    808 1
  1196    825    809 1
  1197    826    813 1
  1198    827    818 1
  1199    851    835 1
  1200    852    835 1
  1201    853    836 1
  1202    854    838 1
  1203    855    840 1
  1204    856    840 1
  1205    857    841 1
  1206    858    845 1
  1207    859    850 1
  1208    882    867 1
  1209    883    867 1
  1210    884    868 1
  1211    885    870 1
  1212    886    872 1
  1213    887    872 1
  1214    888    873 1
  1215    889    880 1
  1216    890    881 1
  1217    914    897 1
  1218    915    897 1
  1219    916    898 1
  1220    917    900 1
  1221    918    902 1
  1222    919    902 1
  1223    920    903 1
  1224    921    905 1
  1225    922    911 1
  1226    944    929 1
  1227    945    929 1
  1228    946    930 1
  1229    947    932 1
  1230    948    934 1
  1231    949    934 1
  1232    950    935 1
  1233    951    942 1
  1234    952    943 1
  1235    977    959 1
  1236    978    959 1
  1237    979    960 1
  1238    980    962 1
  1239    981    964 1
  1240    982    964 1
  1241    983    965 1
  1242    984    967 1
  1243    985    972 1
  1244   1008    992 1
  1245   1009    992 1
  1246   1010    993 1
  1247   1011    995 1
  1248   1012    997 1
  1249   1013    997 1
  1250   1014    998 1
  1251   1015   1002 1
  1252   1016   1007 1
  1253   1042   1024 1
  1254   1043   1024 1
  1255   1044   1025 1
  1256   1045   1027 1
  1257   1046   1029 1
  1258   1047   1029 1
  1259   1048   1030 1
  1260   1049   1032 1
  1261   1050   1037 1
  1262   1074   1057 1
  1263   1075   1057 1
  1264   1076   1058 1
  1265   1077   1060 1
  1266   1078   1062 1
  1267   1079   1062 1
  1268   1080   1063 1
  1269   1081   1065 1
  1270   1082   1071 1
  1271   1106   1089 1
  1272   1107   1089 1
  1273   1108   1090 1
  1274   1109   1092 1
  1275   1110   1094 1
  1276   1111   1094 1
  1277   1112   1095 1
  1278   1113   1097 1
  1279   1114   1103 1
  1280   1137   1121 1
  1281   1138   1121 1
  1282   1139   1122 1
  1283   1140   1124 1
  1284   1141   1126 1
  1285   1142   1126 1
  1286   1143   1127 1
  1287   1144   1131 1
  1288   1145   1136 1
  1289   1169   1153 1
  1290   1170   1153 1
  1291   1171   1154 1
  1292   1172   1156 1
  1293   1173   1158 1
  1294   1174   1158 1
  1295   1175   1159 1
  1296   1176   1163 1
  1297   1177   1168 1
  1298   1200   1185 1
  1299   1201   1185 1
  1300   1202   1186 1
  1301   1203   1188 1
  1302   1204   1190 1
  1303   1205   1190 1
  1304   1206   1191 1
  1305   1207   1198 1
  1306   1208   1199 1
  1307   1232   1215 1
  1308   1233   1215 1
  1309   1234   1216 1
  1310   1235   1218 1
  1311   1236   1220 1
  1312   1237   1220 1
  1313   1238   1221 1
  1314   1239   1223 1
  1315   1240   1229 1
  1316   1262   1247 1
  1317   1263   1247 1
  1318   1264   1248 1
  1319   1265   1250 1
  1320   1266   1252 1
  1321   1267   1252 1
  1322   1268   1253 1
  1323   1269   1260 1
  1324   1270   1261 1
  1325    668    656 1
  1326    669    656 1
  1327    733    721 1
  1328    734    721 1
  1329    891    879 1
  1330    892    879 1
  1331    953    941 1
  1332    954    941 1
  1333    986    974 1
  1334    987    974 1
  1335   1051   1039 1
  1336   1052   1039 1
  1337   1209   1197 1
  1338   1210   1197 1
  1339   1271   1259 1
  1340   1272   1259 1
  1341    765    751 1
  1342    766    751 1
  1343    797    783 1
  1344    798    783 1
  1345    923    909 1
  1346    924    909 1
  1347   1083   1069 1
  1348   1084   1069 1
  1349   1115   1101 1
  1350   1116   1101 1
  1351   1241   1227 1
  1352   1242   1227 1
  1353    699    688 1
  1354    700    688 1
  1355    701    688 1
  1356    828    817 1
  1357    829    817 1
  1358    830    817 1
  1359    860    849 1
  1360    861    849 1
  1361    862    849 1
  1362   1017   1006 1
  1363   1018   1006 1
  1364   1019   1006 1
  1365   1146   1135 1
  1366   1147   1135 1
  1367   1148   1135 1
  1368   1178   1167 1
  1369   1179   1167 1
  1370   1180   1167 1
  1371    933   1273 1
  1372    955   1887 1
  1373   1281   1306 1
  1374   1314   1338 1
  1375   1346   1371 1
  1376   1379   1403 1
  1377   1411   1435 1
  1378   1443   1467 1
  1379   1475   1499 1
  1380   1507   1529 1
  1381   1537   1561 1
  1382   1599   1624 1
  1383   1632   1656 1
  1384   1664   1689 1
  1385   1697   1721 1
  1386   1729   1753 1
  1387   1761   1785 1
  1388   1793   1817 1
  1389   1825   1847 1
  1390   1855   1879 1
  1391   1273   1274 1
  1392   1273   1275 1
  1393   1273   1276 1
  1394   1276   1277 1
  1395   1277   1278 1
  1396   1278   1279 1
  1397   1278   1280 1
  1398   1279   1283 1
  1399   1280   1281 1
  1400   1280   1282 1
  1401   1282   1283 1
  1402   1283   1284 1
  1403   1284   1285 ar
  1404   1284   1294 ar
  1405   1285   1286 ar
  1406   1286   1287 ar
  1407   1287   1288 1
  1408   1287   1294 ar
  1409   1288   1289 2
  1410   1288   1290 am
  1411   1290   1291 1
  1412   1291   1292 2
  1413   1291   1293 2
  1414   1293   1294 1
  1415   1306   1307 1
  1416   1306   1308 1
  1417   1306   1309 1
  1418   1309   1310 1
  1419   1310   1311 1
  1420   1311   1312 1
  1421   1311   1313 1
  1422   1312   1316 1
  1423   1313   1314 1
  1424   1313   1315 1
  1425   1315   1316 1
  1426   1316   1317 1
  1427   1317   1318 am
  1428   1317   1325 1
  1429   1318   1319 2
  1430   1318   1320 am
  1431   1320   1321 am
  1432   1321   1322 2
  1433   1321   1323 1
  1434   1323   1324 1
  1435   1323   1325 2
  1436   1338   1339 1
  1437   1338   1340 1
  1438   1338   1341 1
  1439   1341   1342 1
  1440   1342   1343 1
  1441   1343   1344 1
  1442   1343   1345 1
  1443   1344   1348 1
  1444   1345   1346 1
  1445   1345   1347 1
  1446   1347   1348 1
  1447   1348   1349 1
  1448   1349   1350 ar
  1449   1349   1359 ar
  1450   1350   1351 ar
  1451   1351   1352 ar
  1452   1352   1353 1
  1453   1352   1359 ar
  1454   1353   1354 2
  1455   1353   1355 am
  1456   1355   1356 1
  1457   1356   1357 2
  1458   1356   1358 2
  1459   1358   1359 1
  1460   1371   1372 1
  1461   1371   1373 1
  1462   1371   1374 1
  1463   1374   1375 1
  1464   1375   1376 1
  1465   1376   1377 1
  1466   1376   1378 1
  1467   1377   1381 1
  1468   1378   1379 1
  1469   1378   1380 1
  1470   1380   1381 1
  1471   1381   1382 1
  1472   1382   1383 ar
  1473   1382   1391 ar
  1474   1383   1384 ar
  1475   1384   1385 ar
  1476   1385   1386 ar
  1477   1385   1391 ar
  1478   1386   1387 1
  1479   1386   1388 ar
  1480   1388   1389 ar
  1481   1389   1390 ar
  1482   1390   1391 ar
  1483   1403   1404 1
  1484   1403   1405 1
  1485   1403   1406 1
  1486   1406   1407 1
  1487   1407   1408 1
  1488   1408   1409 1
  1489   1408   1410 1
  1490   1409   1413 1
  1491   1410   1411 1
  1492   1410   1412 1
  1493   1412   1413 1
  1494   1413   1414 1
  1495   1414   1415 ar
  1496   1414   1423 ar
  1497   1415   1416 ar
  1498   1416   1417 ar
  1499   1417   1418 ar
  1500   1417   1423 ar
  1501   1418   1419 1
  1502   1418   1420 ar
  1503   1420   1421 ar
  1504   1421   1422 ar
  1505   1422   1423 ar
  1506   1435   1436 1
  1507   1435   1437 1
  1508   1435   1438 1
  1509   1438   1439 1
  1510   1439   1440 1
  1511   1440   1441 1
  1512   1440   1442 1
  1513   1441   1445 1
  1514   1442   1443 1
  1515   1442   1444 1
  1516   1444   1445 1
  1517   1445   1446 1
  1518   1446   1447 am
  1519   1446   1454 1
  1520   1447   1448 2
  1521   1447   1449 am
  1522   1449   1450 am
  1523   1450   1451 2
  1524   1450   1452 1
  1525   1452   1453 1
  1526   1452   1454 2
  1527   1467   1468 1
  1528   1467   1469 1
  1529   1467   1470 1
  1530   1470   1471 1
  1531   1471   1472 1
  1532   1472   1473 1
  1533   1472   1474 1
  1534   1473   1477 1
  1535   1474   1475 1
  1536   1474   1476 1
  1537   1476   1477 1
  1538   1477   1478 1
  1539   1478   1479 am
  1540   1478   1486 1
  1541   1479   1480 2
  1542   1479   1481 am
  1543   1481   1482 am
  1544   1482   1483 2
  1545   1482   1484 1
  1546   1484   1485 1
  1547   1484   1486 2
  1548   1499   1500 1
  1549   1499   1501 1
  1550   1499   1502 1
  1551   1502   1503 1
  1552   1503   1504 1
  1553   1504   1505 1
  1554   1504   1506 1
  1555   1505   1509 1
  1556   1506   1507 1
  1557   1506   1508 1
  1558   1508   1509 1
  1559   1509   1510 1
  1560   1510   1511 am
  1561   1510   1517 1
  1562   1511   1512 2
  1563   1511   1513 1
  1564   1513   1514 2
  1565   1514   1515 2
  1566   1514   1516 2
  1567   1516   1517 2
  1568   1529   1530 1
  1569   1529   1531 1
  1570   1529   1532 1
  1571   1532   1533 1
  1572   1533   1534 1
  1573   1534   1535 1
  1574   1534   1536 1
  1575   1535   1539 1
  1576   1536   1537 1
  1577   1536   1538 1
  1578   1538   1539 1
  1579   1539   1540 1
  1580   1540   1541 ar
  1581   1540   1549 ar
  1582   1541   1542 ar
  1583   1542   1543 ar
  1584   1543   1544 ar
  1585   1543   1549 ar
  1586   1544   1545 1
  1587   1544   1546 ar
  1588   1546   1547 ar
  1589   1547   1548 ar
  1590   1548   1549 ar
  1591   1561   1562 1
  1592   1561   1563 1
  1593   1561   1564 1
  1594   1564   1565 1
  1595   1565   1566 1
  1596   1566   1567 1
  1597   1566   1568 1
  1598   1567   1571 1
  1599   1568   1569 1
  1600   1568   1570 1
  1601   1570   1571 1
  1602   1571   1572 1
  1603   1572   1573 am
  1604   1572   1579 1
  1605   1573   1574 2
  1606   1573   1575 1
  1607   1575   1576 2
  1608   1576   1577 2
  1609   1576   1578 2
  1610   1578   1579 2
  1611   1591   1592 1
  1612   1591   1593 1
  1613   1591   1594 1
  1614   1594   1595 1
  1615   1595   1596 1
  1616   1596   1597 1
  1617   1596   1598 1
  1618   1597   1601 1
  1619   1598   1599 1
  1620   1598   1600 1
  1621   1600   1601 1
  1622   1601   1602 1
  1623   1602   1603 ar
  1624   1602   1612 ar
  1625   1603   1604 ar
  1626   1604   1605 ar
  1627   1605   1606 1
  1628   1605   1612 ar
  1629   1606   1607 2
  1630   1606   1608 am
  1631   1608   1609 1
  1632   1609   1610 2
  1633   1609   1611 2
  1634   1611   1612 1
  1635   1624   1625 1
  1636   1624   1626 1
  1637   1624   1627 1
  1638   1627   1628 1
  1639   1628   1629 1
  1640   1629   1630 1
  1641   1629   1631 1
  1642   1630   1634 1
  1643   1631   1632 1
  1644   1631   1633 1
  1645   1633   1634 1
  1646   1634   1635 1
  1647   1635   1636 am
  1648   1635   1643 1
  1649   1636   1637 2
  1650   1636   1638 am
  1651   1638   1639 am
  1652   1639   1640 2
  1653   1639   1641 1
  1654   1641   1642 1
  1655   1641   1643 2
  1656   1656   1657 1
  1657   1656   1658 1
  1658   1656   1659 1
  1659   1659   1660 1
  1660   1660   1661 1
  1661   1661   1662 1
  1662   1661   1663 1
  1663   1662   1666 1
  1664   1663   1664 1
  1665   1663   1665 1
  1666   1665   1666 1
  1667   1666   1667 1
  1668   1667   1668 ar
  1669   1667   1677 ar
  1670   1668   1669 ar
  1671   1669   1670 ar
  1672   1670   1671 1
  1673   1670   1677 ar
  1674   1671   1672 2
  1675   1671   1673 am
  1676   1673   1674 1
  1677   1674   1675 2
  1678   1674   1676 2
  1679   1676   1677 1
  1680   1689   1690 1
  1681   1689   1691 1
  1682   1689   1692 1
  1683   1692   1693 1
  1684   1693   1694 1
  1685   1694   1695 1
  1686   1694   1696 1
  1687   1695   1699 1
  1688   1696   1697 1
  1689   1696   1698 1
  1690   1698   1699 1
  1691   1699   1700 1
  1692   1700   1701 ar
  1693   1700   1709 ar
  1694   1701   1702 ar
  1695   1702   1703 ar
  1696   1703   1704 ar
  1697   1703   1709 ar
  1698   1704   1705 1
  1699   1704   1706 ar
  1700   1706   1707 ar
  1701   1707   1708 ar
  1702   1708   1709 ar
  1703   1721   1722 1
  1704   1721   1723 1
  1705   1721   1724 1
  1706   1724   1725 1
  1707   1725   1726 1
  1708   1726   1727 1
  1709   1726   1728 1
  1710   1727   1731 1
  1711   1728   1729 1
  1712   1728   1730 1
  1713   1730   1731 1
  1714   1731   1732 1
  1715   1732   1733 ar
  1716   1732   1741 ar
  1717   1733   1734 ar
  1718   1734   1735 ar
  1719   1735   1736 ar
  1720   1735   1741 ar
  1721   1736   1737 1
  1722   1736   1738 ar
  1723   1738   1739 ar
  1724   1739   1740 ar
  1725   1740   1741 ar
  1726   1753   1754 1
  1727   1753   1755 1
  1728   1753   1756 1
  1729   1756   1757 1
  1730   1757   1758 1
  1731   1758   1759 1
  1732   1758   1760 1
  1733   1759   1763 1
  1734   1760   1761 1
  1735   1760   1762 1
  1736   1762   1763 1
  1737   1763   1764 1
  1738   1764   1765 am
  1739   1764   1772 1
  1740   1765   1766 2
  1741   1765   1767 am
  1742   1767   1768 am
  1743   1768   1769 2
  1744   1768   1770 1
  1745   1770   1771 1
  1746   1770   1772 2
  1747   1785   1786 1
  1748   1785   1787 1
  1749   1785   1788 1
  1750   1788   1789 1
  1751   1789   1790 1
  1752   1790   1791 1
  1753   1790   1792 1
  1754   1791   1795 1
  1755   1792   1793 1
  1756   1792   1794 1
  1757   1794   1795 1
  1758   1795   1796 1
  1759   1796   1797 am
  1760   1796   1804 1
  1761   1797   1798 2
  1762   1797   1799 am
  1763   1799   1800 am
  1764   1800   1801 2
  1765   1800   1802 1
  1766   1802   1803 1
  1767   1802   1804 2
  1768   1817   1818 1
  1769   1817   1819 1
  1770   1817   1820 1
  1771   1820   1821 1
  1772   1821   1822 1
  1773   1822   1823 1
  1774   1822   1824 1
  1775   1823   1827 1
  1776   1824   1825 1
  1777   1824   1826 1
  1778   1826   1827 1
  1779   1827   1828 1
  1780   1828   1829 am
  1781   1828   1835 1
  1782   1829   1830 2
  1783   1829   1831 1
  1784   1831   1832 2
  1785   1832   1833 2
  1786   1832   1834 2
  1787   1834   1835 2
  1788   1847   1848 1
  1789   1847   1849 1
  1790   1847   1850 1
  1791   1850   1851 1
  1792   1851   1852 1
  1793   1852   1853 1
  1794   1852   1854 1
  1795   1853   1857 1
  1796   1854   1855 1
  1797   1854   1856 1
  1798   1856   1857 1
  1799   1857   1858 1
  1800   1858   1859 ar
  1801   1858   1867 ar
  1802   1859   1860 ar
  1803   1860   1861 ar
  1804   1861   1862 ar
  1805   1861   1867 ar
  1806   1862   1863 1
  1807   1862   1864 ar
  1808   1864   1865 ar
  1809   1865   1866 ar
  1810   1866   1867 ar
  1811   1879   1880 1
  1812   1879   1881 1
  1813   1879   1882 1
  1814   1882   1883 1
  1815   1883   1884 1
  1816   1884   1885 1
  1817   1884   1886 1
  1818   1885   1889 1
  1819   1886   1887 1
  1820   1886   1888 1
  1821   1888   1889 1
  1822   1889   1890 1
  1823   1890   1891 am
  1824   1890   1897 1
  1825   1891   1892 2
  1826   1891   1893 1
  1827   1893   1894 2
  1828   1894   1895 2
  1829   1894   1896 2
  1830   1896   1897 2
  1831   1295   1277 1
  1832   1296   1277 1
  1833   1297   1278 1
  1834   1298   1280 1
  1835   1299   1282 1
  1836   1300   1282 1
  1837   1301   1283 1
  1838   1302   1285 1
  1839   1303   1290 1
  1840   1326   1310 1
  1841   1327   1310 1
  1842   1328   1311 1
  1843   1329   1313 1
  1844   1330   1315 1
  1845   1331   1315 1
  1846   1332   1316 1
  1847   1333   1320 1
  1848   1334   1325 1
  1849   1360   1342 1
  1850   1361   1342 1
  1851   1362   1343 1
  1852   1363   1345 1
  1853   1364   1347 1
  1854   1365   1347 1
  1855   1366   1348 1
  1856   1367   1350 1
  1857   1368   1355 1
  1858   1392   1375 1
  1859   1393   1375 1
  1860   1394   1376 1
  1861   1395   1378 1
  1862   1396   1380 1
  1863   1397   1380 1
  1864   1398   1381 1
  1865   1399   1383 1
  1866   1400   1389 1
  1867   1424   1407 1
  1868   1425   1407 1
  1869   1426   1408 1
  1870   1427   1410 1
  1871   1428   1412 1
  1872   1429   1412 1
  1873   1430   1413 1
  1874   1431   1415 1
  1875   1432   1421 1
  1876   1455   1439 1
  1877   1456   1439 1
  1878   1457   1440 1
  1879   1458   1442 1
  1880   1459   1444 1
  1881   1460   1444 1
  1882   1461   1445 1
  1883   1462   1449 1
  1884   1463   1454 1
  1885   1487   1471 1
  1886   1488   1471 1
  1887   1489   1472 1
  1888   1490   1474 1
  1889   1491   1476 1
  1890   1492   1476 1
  1891   1493   1477 1
  1892   1494   1481 1
  1893   1495   1486 1
  1894   1518   1503 1
  1895   1519   1503 1
  1896   1520   1504 1
  1897   1521   1506 1
  1898   1522   1508 1
  1899   1523   1508 1
  1900   1524   1509 1
  1901   1525   1516 1
  1902   1526   1517 1
  1903   1550   1533 1
  1904   1551   1533 1
  1905   1552   1534 1
  1906   1553   1536 1
  1907   1554   1538 1
  1908   1555   1538 1
  1909   1556   1539 1
  1910   1557   1541 1
  1911   1558   1547 1
  1912   1580   1565 1
  1913   1581   1565 1
  1914   1582   1566 1
  1915   1583   1568 1
  1916   1584   1570 1
  1917   1585   1570 1
  1918   1586   1571 1
  1919   1587   1578 1
  1920   1588   1579 1
  1921   1613   1595 1
  1922   1614   1595 1
  1923   1615   1596 1
  1924   1616   1598 1
  1925   1617   1600 1
  1926   1618   1600 1
  1927   1619   1601 1
  1928   1620   1603 1
  1929   1621   1608 1
  1930   1644   1628 1
  1931   1645   1628 1
  1932   1646   1629 1
  1933   1647   1631 1
  1934   1648   1633 1
  1935   1649   1633 1
  1936   1650   1634 1
  1937   1651   1638 1
  1938   1652   1643 1
  1939   1678   1660 1
  1940   1679   1660 1
  1941   1680   1661 1
  1942   1681   1663 1
  1943   1682   1665 1
  1944   1683   1665 1
  1945   1684   1666 1
  1946   1685   1668 1
  1947   1686   1673 1
  1948   1710   1693 1
  1949   1711   1693 1
  1950   1712   1694 1
  1951   1713   1696 1
  1952   1714   1698 1
  1953   1715   1698 1
  1954   1716   1699 1
  1955   1717   1701 1
  1956   1718   1707 1
  1957   1742   1725 1
  1958   1743   1725 1
  1959   1744   1726 1
  1960   1745   1728 1
  1961   1746   1730 1
  1962   1747   1730 1
  1963   1748   1731 1
  1964   1749   1733 1
  1965   1750   1739 1
  1966   1773   1757 1
  1967   1774   1757 1
  1968   1775   1758 1
  1969   1776   1760 1
  1970   1777   1762 1
  1971   1778   1762 1
  1972   1779   1763 1
  1973   1780   1767 1
  1974   1781   1772 1
  1975   1805   1789 1
  1976   1806   1789 1
  1977   1807   1790 1
  1978   1808   1792 1
  1979   1809   1794 1
  1980   1810   1794 1
  1981   1811   1795 1
  1982   1812   1799 1
  1983   1813   1804 1
  1984   1836   1821 1
  1985   1837   1821 1
  1986   1838   1822 1
  1987   1839   1824 1
  1988   1840   1826 1
  1989   1841   1826 1
  1990   1842   1827 1
  1991   1843   1834 1
  1992   1844   1835 1
  1993   1868   1851 1
  1994   1869   1851 1
  1995   1870   1852 1
  1996   1871   1854 1
  1997   1872   1856 1
  1998   1873   1856 1
  1999   1874   1857 1
  2000   1875   1859 1
  2001   1876   1865 1
  2002   1898   1883 1
  2003   1899   1883 1
  2004   1900   1884 1
  2005   1901   1886 1
  2006   1902   1888 1
  2007   1903   1888 1
  2008   1904   1889 1
  2009   1905   1896 1
  2010   1906   1897 1
  2011   1304   1292 1
  2012   1305   1292 1
  2013   1369   1357 1
  2014   1370   1357 1
  2015   1527   1515 1
  2016   1528   1515 1
  2017   1589   1577 1
  2018   1590   1577 1
  2019   1622   1610 1
  2020   1623   1610 1
  2021   1687   1675 1
  2022   1688   1675 1
  2023   1845   1833 1
  2024   1846   1833 1
  2025   1907   1895 1
  2026   1908   1895 1
  2027   1401   1387 1
  2028   1402   1387 1
  2029   1433   1419 1
  2030   1434   1419 1
  2031   1559   1545 1
  2032   1560   1545 1
  2033   1719   1705 1
  2034   1720   1705 1
  2035   1751   1737 1
  2036   1752   1737 1
  2037   1877   1863 1
  2038   1878   1863 1
  2039   1335   1324 1
  2040   1336   1324 1
  2041   1337   1324 1
  2042   1464   1453 1
  2043   1465   1453 1
  2044   1466   1453 1
  2045   1496   1485 1
  2046   1497   1485 1
  2047   1498   1485 1
  2048   1653   1642 1
  2049   1654   1642 1
  2050   1655   1642 1
  2051   1782   1771 1
  2052   1783   1771 1
  2053   1784   1771 1
  2054   1814   1803 1
  2055   1815   1803 1
  2056   1816   1803 1
  2057   1569   1909 1
  2058   1591   2141 1
  2059   1917   1942 1
  2060   1950   1974 1
  2061   1982   2007 1
  2062   2047   2071 1
  2063   2079   2101 1
  2064   2109   2133 1
  2065   1909   1910 1
  2066   1909   1911 1
  2067   1909   1912 1
  2068   1912   1913 1
  2069   1913   1914 1
  2070   1914   1915 1
  2071   1914   1916 1
  2072   1915   1919 1
  2073   1916   1917 1
  2074   1916   1918 1
  2075   1918   1919 1
  2076   1919   1920 1
  2077   1920   1921 ar
  2078   1920   1930 ar
  2079   1921   1922 ar
  2080   1922   1923 ar
  2081   1923   1924 1
  2082   1923   1930 ar
  2083   1924   1925 2
  2084   1924   1926 am
  2085   1926   1927 1
  2086   1927   1928 2
  2087   1927   1929 2
  2088   1929   1930 1
  2089   1942   1943 1
  2090   1942   1944 1
  2091   1942   1945 1
  2092   1945   1946 1
  2093   1946   1947 1
  2094   1947   1948 1
  2095   1947   1949 1
  2096   1948   1952 1
  2097   1949   1950 1
  2098   1949   1951 1
  2099   1951   1952 1
  2100   1952   1953 1
  2101   1953   1954 am
  2102   1953   1961 1
  2103   1954   1955 2
  2104   1954   1956 am
  2105   1956   1957 am
  2106   1957   1958 2
  2107   1957   1959 1
  2108   1959   1960 1
  2109   1959   1961 2
  2110   1974   1975 1
  2111   1974   1976 1
  2112   1974   1977 1
  2113   1977   1978 1
  2114   1978   1979 1
  2115   1979   1980 1
  2116   1979   1981 1
  2117   1980   1984 1
  2118   1981   1982 1
  2119   1981   1983 1
  2120   1983   1984 1
  2121   1984   1985 1
  2122   1985   1986 ar
  2123   1985   1995 ar
  2124   1986   1987 ar
  2125   1987   1988 ar
  2126   1988   1989 1
  2127   1988   1995 ar
  2128   1989   1990 2
  2129   1989   1991 am
  2130   1991   1992 1
  2131   1992   1993 2
  2132   1992   1994 2
  2133   1994   1995 1
  2134   2007   2008 1
  2135   2007   2009 1
  2136   2007   2010 1
  2137   2010   2011 1
  2138   2011   2012 1
  2139   2012   2013 1
  2140   2012   2014 1
  2141   2013   2017 1
  2142   2014   2015 1
  2143   2014   2016 1
  2144   2016   2017 1
  2145   2017   2018 1
  2146   2018   2019 ar
  2147   2018   2027 ar
  2148   2019   2020 ar
  2149   2020   2021 ar
  2150   2021   2022 ar
  2151   2021   2027 ar
  2152   2022   2023 1
  2153   2022   2024 ar
  2154   2024   2025 ar
  2155   2025   2026 ar
  2156   2026   2027 ar
  2157   2039   2040 1
  2158   2039   2041 1
  2159   2039   2042 1
  2160   2042   2043 1
  2161   2043   2044 1
  2162   2044   2045 1
  2163   2044   2046 1
  2164   2045   2049 1
  2165   2046   2047 1
  2166   2046   2048 1
  2167   2048   2049 1
  2168   2049   2050 1
  2169   2050   2051 am
  2170   2050   2058 1
  2171   2051   2052 2
  2172   2051   2053 am
  2173   2053   2054 am
  2174   2054   2055 2
  2175   2054   2056 1
  2176   2056   2057 1
  2177   2056   2058 2
  2178   2071   2072 1
  2179   2071   2073 1
  2180   2071   2074 1
  2181   2074   2075 1
  2182   2075   2076 1
  2183   2076   2077 1
  2184   2076   2078 1
  2185   2077   2081 1
  2186   2078   2079 1
  2187   2078   2080 1
  2188   2080   2081 1
  2189   2081   2082 1
  2190   2082   2083 am
  2191   2082   2089 1
  2192   2083   2084 2
  2193   2083   2085 1
  2194   2085   2086 2
  2195   2086   2087 2
  2196   2086   2088 2
  2197   2088   2089 2
  2198   2101   2102 1
  2199   2101   2103 1
  2200   2101   2104 1
  2201   2104   2105 1
  2202   2105   2106 1
  2203   2106   2107 1
  2204   2106   2108 1
  2205   2107   2111 1
  2206   2108   2109 1
  2207   2108   2110 1
  2208   2110   2111 1
  2209   2111   2112 1
  2210   2112   2113 ar
  2211   2112   2121 ar
  2212   2113   2114 ar
  2213   2114   2115 ar
  2214   2115   2116 ar
  2215   2115   2121 ar
  2216   2116   2117 1
  2217   2116   2118 ar
  2218   2118   2119 ar
  2219   2119   2120 ar
  2220   2120   2121 ar
  2221   2133   2134 1
  2222   2133   2135 1
  2223   2133   2136 1
  2224   2136   2137 1
  2225   2137   2138 1
  2226   2138   2139 1
  2227   2138   2140 1
  2228   2139   2143 1
  2229   2140   2141 1
  2230   2140   2142 1
  2231   2142   2143 1
  2232   2143   2144 1
  2233   2144   2145 am
  2234   2144   2151 1
  2235   2145   2146 2
  2236   2145   2147 1
  2237   2147   2148 2
  2238   2148   2149 2
  2239   2148   2150 2
  2240   2150   2151 2
  2241   1931   1913 1
  2242   1932   1913 1
  2243   1933   1914 1
  2244   1934   1916 1
  2245   1935   1918 1
  2246   1936   1918 1
  2247   1937   1919 1
  2248   1938   1921 1
  2249   1939   1926 1
  2250   1962   1946 1
  2251   1963   1946 1
  2252   1964   1947 1
  2253   1965   1949 1
  2254   1966   1951 1
  2255   1967   1951 1
  2256   1968   1952 1
  2257   1969   1956 1
  2258   1970   1961 1
  2259   1996   1978 1
  2260   1997   1978 1
  2261   1998   1979 1
  2262   1999   1981 1
  2263   2000   1983 1
  2264   2001   1983 1
  2265   2002   1984 1
  2266   2003   1986 1
  2267   2004   1991 1
  2268   2028   2011 1
  2269   2029   2011 1
  2270   2030   2012 1
  2271   2031   2014 1
  2272   2032   2016 1
  2273   2033   2016 1
  2274   2034   2017 1
  2275   2035   2019 1
  2276   2036   2025 1
  2277   2059   2043 1
  2278   2060   2043 1
  2279   2061   2044 1
  2280   2062   2046 1
  2281   2063   2048 1
  2282   2064   2048 1
  2283   2065   2049 1
  2284   2066   2053 1
  2285   2067   2058 1
  2286   2090   2075 1
  2287   2091   2075 1
  2288   2092   2076 1
  2289   2093   2078 1
  2290   2094   2080 1
  2291   2095   2080 1
  2292   2096   2081 1
  2293   2097   2088 1
  2294   2098   2089 1
  2295   2122   2105 1
  2296   2123   2105 1
  2297   2124   2106 1
  2298   2125   2108 1
  2299   2126   2110 1
  2300   2127   2110 1
  2301   2128   2111 1
  2302   2129   2113 1
  2303   2130   2119 1
  2304   2152   2137 1
  2305   2153   2137 1
  2306   2154   2138 1
  2307   2155   2140 1
  2308   2156   2142 1
  2309   2157   2142 1
  2310   2158   2143 1
  2311   2159   2150 1
  2312   2160   2151 1
  2313   1940   1928 1
  2314   1941   1928 1
  2315   2005   1993 1
  2316   2006   1993 1
  2317   2099   2087 1
  2318   2100   2087 1
  2319   2161   2149 1
  2320   2162   2149 1
  2321   2037   2023 1
  2322   2038   2023 1
  2323   2131   2117 1
  2324   2132   2117 1
  2325   1971   1960 1
  2326   1972   1960 1
  2327   1973   1960 1
  2328   2068   2057 1
  2329   2069   2057 1
  2330   2070   2057 1
@<TRIPOS>MOLECULE
dna-seg-19-bp33
2100 2263 1 0 0
BIOPOLYMER
NO_CHARGES


@<TRIPOS>ATOM
      1 P         10.0759     1.8643  2069.9997 P.3      635 DA      0.0000
      2 OP1       11.2139     2.5960  2069.3327 O.co2    635 DA      0.0000
      3 OP2       10.4673     0.7075  2070.8306 O.co2    635 DA      0.0000
      4 O5'        9.1196     3.0257  2070.5306 O.3      635 DA      0.0000
      5 C5'        8.6269     4.0806  2069.7062 C.3      635 DA      0.0000
      6 C4'        7.2606     4.4889  2070.2285 C.3      635 DA      0.0000
      7 O4'        6.3818     3.3999  2070.2567 O.3      635 DA      0.0000
      8 C3'        7.2021     5.1477  2071.5958 C.3      635 DA      0.0000
      9 O3'        6.7234     6.4902  2071.5180 O.3      635 DA      0.0000
     10 C2'        6.3338     4.1930  2072.4246 C.3      635 DA      0.0000
     11 C1'        5.5095     3.4710  2071.4308 C.3      635 DA      0.0000
     12 N9         5.0523     2.0953  2071.6988 N.ar     635 DA      0.0000
     13 C8         5.7731     0.9315  2071.8140 C.ar     635 DA      0.0000
     14 N7         5.0371    -0.1413  2071.9833 N.ar     635 DA      0.0000
     15 C5         3.7331     0.3422  2071.9463 C.ar     635 DA      0.0000
     16 C6         2.4752    -0.3143  2072.0668 C.ar     635 DA      0.0000
     17 N6         2.3009    -1.6160  2072.2584 N.pl3    635 DA      0.0000
     18 N1         1.3718     0.4959  2071.9686 N.ar     635 DA      0.0000
     19 C2         1.5114     1.8402  2071.7795 C.ar     635 DA      0.0000
     20 N3         2.6506     2.5144  2071.6717 N.ar     635 DA      0.0000
     21 C4         3.7253     1.7056  2071.7635 C.ar     635 DA      0.0000
     22 H5'        8.5402     3.7347  2068.6762 H        635 DA      0.0000
     23 H5''       9.3070     4.9312  2069.7522 H        635 DA      0.0000
     24 H4'        6.8519     5.2052  2069.5158 H        635 DA      0.0000
     25 H3'        8.2065     5.1605  2072.0191 H        635 DA      0.0000
     26 H2'        6.9572     3.4961  2072.9849 H        635 DA      0.0000
     27 H2''       5.6958     4.7579  2073.1042 H        635 DA      0.0000
     28 H1'        4.6429     4.0846  2071.1847 H        635 DA      0.0000
     29 H8         6.8518     0.9022  2071.7692 H        635 DA      0.0000
     30 H2         0.6003     2.4160  2071.7103 H        635 DA      0.0000
     31 H61        3.0442    -2.2170  2072.5846 H        635 DA      0.0000
     32 H62        1.3939    -2.0193  2072.0716 H        635 DA      0.0000
     33 P          7.1940     7.7184  2072.4742 P.3      636 DT      0.0000
     34 OP1        7.3972     9.0018  2071.6769 O.co2    636 DT      0.0000
     35 OP2        8.3203     7.3253  2073.2948 O.co2    636 DT      0.0000
     36 O5'        5.8045     8.0533  2073.2879 O.3      636 DT      0.0000
     37 C5'        4.6541     7.9637  2072.3428 C.3      636 DT      0.0000
     38 C4'        3.5781     7.2604  2073.1306 C.3      636 DT      0.0000
     39 O4'        3.8239     5.8854  2073.3225 O.3      636 DT      0.0000
     40 C3'        3.4190     7.8428  2074.5472 C.3      636 DT      0.0000
     41 O3'        2.3409     8.7603  2074.5488 O.3      636 DT      0.0000
     42 C2'        3.2251     6.6230  2075.4444 C.3      636 DT      0.0000
     43 C1'        2.9440     5.5410  2074.4798 C.3      636 DT      0.0000
     44 N1         3.2257     4.1554  2074.8195 N.am     636 DT      0.0000
     45 C2         2.1315     3.3071  2074.9575 C.2      636 DT      0.0000
     46 O2         0.9967     3.7582  2074.8695 O.2      636 DT      0.0000
     47 N3         2.3660     1.9895  2075.2115 N.am     636 DT      0.0000
     48 C4         3.6248     1.4741  2075.3316 C.2      636 DT      0.0000
     49 O4         3.7608     0.2350  2075.5868 O.2      636 DT      0.0000
     50 C5         4.7370     2.3626  2075.1600 C.2      636 DT      0.0000
     51 C7         6.1447     1.8415  2075.2476 C.3      636 DT      0.0000
     52 C6         4.5002     3.6608  2074.9043 C.2      636 DT      0.0000
     53 H5'        4.3242     8.9579  2072.0412 H        636 DT      0.0000
     54 H5''       4.9285     7.3746  2071.4678 H        636 DT      0.0000
     55 H4'        2.6318     7.3727  2072.6014 H        636 DT      0.0000
     56 H3'        4.3355     8.3599  2074.8315 H        636 DT      0.0000
     57 H2'        4.1276     6.4115  2076.0178 H        636 DT      0.0000
     58 H2''       2.3753     6.7705  2076.1108 H        636 DT      0.0000
     59 H1'        1.9040     5.6179  2074.1625 H        636 DT      0.0000
     60 H3         1.5764     1.3683  2075.3152 H        636 DT      0.0000
     61 H6         5.3355     4.3305  2074.7621 H        636 DT      0.0000
     62 H71        6.1244     0.7727  2075.4606 H        636 DT      0.0000
     63 H72        6.6549     2.0132  2074.2998 H        636 DT      0.0000
     64 H73        6.6755     2.3610  2076.0454 H        636 DT      0.0000
     65 P          1.9093     9.7596  2075.6555 P.3      637 DT      0.0000
     66 OP1        1.0803    10.9184  2075.0434 O.co2    637 DT      0.0000
     67 OP2        3.1621    10.2505  2076.2854 O.co2    637 DT      0.0000
     68 O5'        0.8451     8.9467  2076.5378 O.3      637 DT      0.0000
     69 C5'       -0.3993     8.7111  2075.8260 C.3      637 DT      0.0000
     70 C4'       -1.1344     7.6063  2076.5022 C.3      637 DT      0.0000
     71 O4'       -0.4479     6.3610  2076.4788 O.3      637 DT      0.0000
     72 C3'       -1.4920     7.8869  2077.9688 C.3      637 DT      0.0000
     73 O3'       -2.8227     7.4850  2078.2328 O.3      637 DT      0.0000
     74 C2'       -0.5059     6.9491  2078.7051 C.3      637 DT      0.0000
     75 C1'       -0.6663     5.7435  2077.8016 C.3      637 DT      0.0000
     76 N1         0.3301     4.7313  2078.0993 N.am     637 DT      0.0000
     77 C2        -0.0700     3.4060  2078.1541 C.2      637 DT      0.0000
     78 O2        -1.2564     3.1332  2077.9656 O.2      637 DT      0.0000
     79 N3         0.8755     2.4559  2078.4200 N.am     637 DT      0.0000
     80 C4         2.1832     2.7716  2078.6270 C.2      637 DT      0.0000
     81 O4         3.0046     1.8369  2078.8503 O.2      637 DT      0.0000
     82 C5         2.5843     4.1379  2078.5619 C.2      637 DT      0.0000
     83 C7         4.0077     4.5651  2078.7719 C.3      637 DT      0.0000
     84 C6         1.6427     5.0580  2078.3008 C.2      637 DT      0.0000
     85 H5'       -1.0060     9.6166  2075.8384 H        637 DT      0.0000
     86 H5''      -0.1835     8.4296  2074.7953 H        637 DT      0.0000
     87 H4'       -2.0718     7.4669  2075.9637 H        637 DT      0.0000
     88 H3'       -1.3268     8.9319  2078.2312 H        637 DT      0.0000
     89 H2'        0.5132     7.3356  2078.7039 H        637 DT      0.0000
     90 H2''      -0.8463     6.7331  2079.7178 H        637 DT      0.0000
     91 H1'       -1.6728     5.3322  2077.8772 H        637 DT      0.0000
     92 H3         0.5944     1.4868  2078.4644 H        637 DT      0.0000
     93 H6         1.9329     6.0969  2078.2477 H        637 DT      0.0000
     94 H71        4.6250     3.6890  2078.9708 H        637 DT      0.0000
     95 H72        4.3711     5.0696  2077.8766 H        637 DT      0.0000
     96 H73        4.0610     5.2473  2079.6203 H        637 DT      0.0000
     97 P         -4.1088     8.1478  2078.8408 P.3      638 DC      0.0000
     98 OP1       -5.1527     8.4124  2077.7728 O.co2    638 DC      0.0000
     99 OP2       -3.6271     9.3316  2079.5757 O.co2    638 DC      0.0000
    100 O5'       -4.6159     6.8361  2079.6668 O.3      638 DC      0.0000
    101 C5'       -4.6406     5.7732  2078.6445 C.3      638 DC      0.0000
    102 C4'       -5.0318     4.5010  2079.3410 C.3      638 DC      0.0000
    103 O4'       -3.9423     3.6673  2079.5880 O.3      638 DC      0.0000
    104 C3'       -5.8205     4.6864  2080.6325 C.3      638 DC      0.0000
    105 O3'       -7.0644     4.0031  2080.5528 O.3      638 DC      0.0000
    106 C2'       -4.8063     4.2247  2081.6813 C.3      638 DC      0.0000
    107 C1'       -3.9752     3.2212  2080.9849 C.3      638 DC      0.0000
    108 N1        -2.5474     3.1902  2081.3170 N.am     638 DC      0.0000
    109 C2        -2.0094     1.9308  2081.5728 C.2      638 DC      0.0000
    110 O2        -2.7167     0.9186  2081.5773 O.2      638 DC      0.0000
    111 N3        -0.6658     1.8605  2081.8466 N.2      638 DC      0.0000
    112 C4         0.1221     2.9738  2081.8367 C.2      638 DC      0.0000
    113 N4         1.4102     2.8030  2082.1135 N.pl3    638 DC      0.0000
    114 C5        -0.4341     4.2418  2081.5587 C.2      638 DC      0.0000
    115 C6        -1.7557     4.2944  2081.2939 C.2      638 DC      0.0000
    116 H5'       -5.3693     6.0153  2077.8709 H        638 DC      0.0000
    117 H5''      -3.6514     5.6633  2078.2003 H        638 DC      0.0000
    118 H4'       -5.6848     3.9614  2078.6551 H        638 DC      0.0000
    119 H3'       -6.0133     5.7496  2080.7758 H        638 DC      0.0000
    120 H2'       -4.1953     5.0617  2082.0192 H        638 DC      0.0000
    121 H2''      -5.3201     3.7674  2082.5268 H        638 DC      0.0000
    122 H1'       -4.4154     2.2273  2081.0658 H        638 DC      0.0000
    123 H5         0.1745     5.1340  2081.5581 H        638 DC      0.0000
    124 H6        -2.2009     5.2489  2081.0549 H        638 DC      0.0000
    125 H41        1.7657     1.8789  2082.3127 H        638 DC      0.0000
    126 H42        2.0339     3.5973  2082.1249 H        638 DC      0.0000
    127 P         -8.3563     4.2442  2081.5049 P.3      639 DA      0.0000
    128 OP1       -9.5772     3.8203  2080.7111 O.co2    639 DA      0.0000
    129 OP2       -8.4010     5.6796  2081.8504 O.co2    639 DA      0.0000
    130 O5'       -8.0806     3.2695  2082.8019 O.3      639 DA      0.0000
    131 C5'       -7.7863     1.8698  2082.5067 C.3      639 DA      0.0000
    132 C4'       -7.4603     1.1291  2083.7619 C.3      639 DA      0.0000
    133 O4'       -6.0643     0.9299  2084.0041 O.3      639 DA      0.0000
    134 C3'       -7.9237     1.7973  2085.0672 C.3      639 DA      0.0000
    135 O3'       -7.9623     0.8069  2086.0971 O.3      639 DA      0.0000
    136 C2'       -6.7459     2.7688  2085.2818 C.3      639 DA      0.0000
    137 C1'       -5.6306     1.7340  2085.0985 C.3      639 DA      0.0000
    138 N9        -4.3527     2.4194  2085.0042 N.ar     639 DA      0.0000
    139 C8        -4.0626     3.7506  2084.8883 C.ar     639 DA      0.0000
    140 N7        -2.7741     4.0412  2084.8697 N.ar     639 DA      0.0000
    141 C5        -2.1679     2.7975  2084.9773 C.ar     639 DA      0.0000
    142 C6        -0.8072     2.4046  2085.0118 C.ar     639 DA      0.0000
    143 N6         0.2151     3.2368  2084.9265 N.pl3    639 DA      0.0000
    144 N1        -0.5709     1.0663  2085.1444 N.ar     639 DA      0.0000
    145 C2        -1.6012     0.1676  2085.2246 C.ar     639 DA      0.0000
    146 N3        -2.8995     0.4586  2085.1947 N.ar     639 DA      0.0000
    147 C4        -3.1155     1.7912  2085.0717 C.ar     639 DA      0.0000
    148 H5'       -8.6561     1.4119  2082.0355 H        639 DA      0.0000
    149 H5''      -6.9371     1.8158  2081.8254 H        639 DA      0.0000
    150 H4'       -7.9321     0.1483  2083.7030 H        639 DA      0.0000
    151 H3'       -8.8755     2.3163  2084.9535 H        639 DA      0.0000
    152 H2'       -6.7122     3.5582  2084.5310 H        639 DA      0.0000
    153 H2''      -6.7467     3.1791  2086.2917 H        639 DA      0.0000
    154 H1'       -5.6082     1.1047  2085.9881 H        639 DA      0.0000
    155 H8        -4.8294     4.5078  2084.8173 H        639 DA      0.0000
    156 H2        -1.3351    -0.8747  2085.3210 H        639 DA      0.0000
    157 H61        1.2056     3.1552  2085.1066 H        639 DA      0.0000
    158 H62       -0.0530     4.1583  2084.6118 H        639 DA      0.0000
    159 P         -9.1957    -0.2028  2086.2376 P.3      640 DC      0.0000
    160 OP1      -10.0069    -0.3161  2084.9925 O.co2    640 DC      0.0000
    161 OP2       -9.9653     0.3937  2087.3805 O.co2    640 DC      0.0000
    162 O5'       -8.4951    -1.5969  2086.5207 O.3      640 DC      0.0000
    163 C5'       -7.9604    -2.4104  2085.4330 C.3      640 DC      0.0000
    164 C4'       -6.8212    -3.1553  2086.1380 C.3      640 DC      0.0000
    165 O4'       -5.8281    -2.2060  2086.4500 O.3      640 DC      0.0000
    166 C3'       -7.2376    -3.8193  2087.4479 C.3      640 DC      0.0000
    167 O3'       -6.8633    -5.2139  2087.5158 O.3      640 DC      0.0000
    168 C2'       -6.5695    -2.9577  2088.5301 C.3      640 DC      0.0000
    169 C1'       -5.3463    -2.4867  2087.8539 C.3      640 DC      0.0000
    170 N1        -4.7217    -1.2144  2088.2067 N.am     640 DC      0.0000
    171 C2        -3.3283    -1.2112  2088.1798 C.2      640 DC      0.0000
    172 O2        -2.6684    -2.2219  2087.9729 O.2      640 DC      0.0000
    173 N3        -2.7011    -0.0312  2088.4330 N.2      640 DC      0.0000
    174 C4        -3.3797     1.1182  2088.6663 C.2      640 DC      0.0000
    175 N4        -2.6539     2.2105  2088.8972 N.pl3    640 DC      0.0000
    176 C5        -4.8017     1.1049  2088.6729 C.2      640 DC      0.0000
    177 C6        -5.4137    -0.0631  2088.4234 C.2      640 DC      0.0000
    178 H5'       -8.7098    -3.1020  2085.0482 H        640 DC      0.0000
    179 H5''      -7.5720    -1.7788  2084.6340 H        640 DC      0.0000
    180 H4'       -6.4073    -3.9065  2085.4653 H        640 DC      0.0000
    181 H3'       -8.3195    -3.7401  2087.5538 H        640 DC      0.0000
    182 H2'       -7.2075    -2.1217  2088.8171 H        640 DC      0.0000
    183 H2''      -6.3172    -3.5634  2089.4003 H        640 DC      0.0000
    184 H1'       -4.5981    -3.2792  2087.8406 H        640 DC      0.0000
    185 H5        -5.3686     2.0025  2088.8714 H        640 DC      0.0000
    186 H6        -6.4929    -0.0902  2088.3937 H        640 DC      0.0000
    187 H41       -1.6453     2.1583  2088.8862 H        640 DC      0.0000
    188 H42       -3.1120     3.0912  2089.0834 H        640 DC      0.0000
    189 P          7.4920     3.9896  2090.4753 P.3      640 DG      0.0000
    190 OP1        8.7698     4.7459  2090.6541 O.co2    640 DG      0.0000
    191 OP2        6.5984     4.5763  2089.3905 O.co2    640 DG      0.0000
    192 O5'        7.8280     2.3917  2090.2681 O.3      640 DG      0.0000
    193 C5'        7.5549     1.4565  2091.3638 C.3      640 DG      0.0000
    194 C4'        7.0337     0.1690  2090.7295 C.3      640 DG      0.0000
    195 O4'        5.6355     0.1594  2090.6337 O.3      640 DG      0.0000
    196 C3'        7.5620    -0.1012  2089.3232 C.3      640 DG      0.0000
    197 O3'        7.8667    -1.4897  2089.0562 O.3      640 DG      0.0000
    198 C2'        6.4244     0.4101  2088.4209 C.3      640 DG      0.0000
    199 C1'        5.2096     0.0167  2089.2447 C.3      640 DG      0.0000
    200 N9         4.0714     0.9107  2088.9714 N.ar     640 DG      0.0000
    201 C8         4.0879     2.2763  2088.8148 C.ar     640 DG      0.0000
    202 N7         2.9110     2.8000  2088.5964 N.ar     640 DG      0.0000
    203 C5         2.0540     1.7060  2088.6212 C.ar     640 DG      0.0000
    204 C6         0.6452     1.6148  2088.4647 C.2      640 DG      0.0000
    205 O6        -0.1398     2.5534  2088.2679 O.2      640 DG      0.0000
    206 N1         0.1484     0.3377  2088.5516 N.am     640 DG      0.0000
    207 C2         0.9384    -0.7416  2088.7723 C.2      640 DG      0.0000
    208 N2         0.3161    -1.9155  2088.8356 N.pl3    640 DG      0.0000
    209 N3         2.2674    -0.7108  2088.9300 N.2      640 DG      0.0000
    210 C4         2.7541     0.5427  2088.8467 C.ar     640 DG      0.0000
    211 H5'        8.4696     1.2557  2091.9216 H        640 DG      0.0000
    212 H5''       6.7992     1.8747  2092.0287 H        640 DG      0.0000
    213 H4'        7.3323    -0.6638  2091.3662 H        640 DG      0.0000
    214 H3'        8.4541     0.5015  2089.1527 H        640 DG      0.0000
    215 H2'        6.4799     1.4893  2088.2782 H        640 DG      0.0000
    216 H2''       6.4272    -0.1084  2087.4622 H        640 DG      0.0000
    217 H1'        4.9340    -1.0177  2089.0395 H        640 DG      0.0000
    218 H8         4.9927     2.8637  2088.8675 H        640 DG      0.0000
    219 H1        -0.8461     0.1967  2088.4468 H        640 DG      0.0000
    220 H21       -0.6862    -1.9626  2088.7205 H        640 DG      0.0000
    221 H22        0.8459    -2.7598  2088.9988 H        640 DG      0.0000
    222 P          7.6963    -1.9565  2087.5327 P.3      639 DT      0.0000
    223 OP1        8.6015    -3.0936  2087.1418 O.co2    639 DT      0.0000
    224 OP2        8.0734    -0.7043  2086.8322 O.co2    639 DT      0.0000
    225 O5'        6.1634    -2.4040  2087.4018 O.3      639 DT      0.0000
    226 C5'        5.8623    -3.8110  2087.6695 C.3      639 DT      0.0000
    227 C4'        4.6062    -4.1837  2086.9124 C.3      639 DT      0.0000
    228 O4'        3.6482    -3.1406  2086.8851 O.3      639 DT      0.0000
    229 C3'        4.8704    -4.5401  2085.4577 C.3      639 DT      0.0000
    230 O3'        4.0615    -5.6292  2084.9626 O.3      639 DT      0.0000
    231 C2'        4.5747    -3.2447  2084.7349 C.3      639 DT      0.0000
    232 C1'        3.3468    -2.8016  2085.5130 C.3      639 DT      0.0000
    233 N1         3.2537    -1.3410  2085.3616 N.am     639 DT      0.0000
    234 C2         1.9800    -0.7920  2085.4684 C.2      639 DT      0.0000
    235 O2         1.0062    -1.5130  2085.6582 O.2      639 DT      0.0000
    236 N3         1.8733     0.5654  2085.3483 N.am     639 DT      0.0000
    237 C4         2.9605     1.3576  2085.1307 C.2      639 DT      0.0000
    238 O4         2.7617     2.6136  2085.0331 O.2      639 DT      0.0000
    239 C5         4.2519     0.7665  2085.0243 C.2      639 DT      0.0000
    240 C7         5.4585     1.6309  2084.7954 C.3      639 DT      0.0000
    241 C6         4.3502    -0.5597  2085.1461 C.2      639 DT      0.0000
    242 H5'        6.6916    -4.4347  2087.3357 H        639 DT      0.0000
    243 H5''       5.7025    -3.9548  2088.7381 H        639 DT      0.0000
    244 H4'        4.1565    -5.0485  2087.4004 H        639 DT      0.0000
    245 H3'        5.9243    -4.7891  2085.3337 H        639 DT      0.0000
    246 H2'        5.3938    -2.5314  2084.8264 H        639 DT      0.0000
    247 H2''       4.3300    -3.4275  2083.6885 H        639 DT      0.0000
    248 H1'        2.4443    -3.3021  2085.1623 H        639 DT      0.0000
    249 H3         0.9618     0.9940  2085.4229 H        639 DT      0.0000
    250 H6         5.3220    -1.0249  2085.0719 H        639 DT      0.0000
    251 H71        5.1509     2.6743  2084.7267 H        639 DT      0.0000
    252 H72        6.1538     1.5113  2085.6262 H        639 DT      0.0000
    253 H73        5.9472     1.3343  2083.8672 H        639 DT      0.0000
    254 P          5.0823    -6.6812  2084.1842 P.3      638 DG      0.0000
    255 OP1        5.5640    -7.7952  2085.0555 O.co2    638 DG      0.0000
    256 OP2        6.1293    -5.7105  2083.7787 O.co2    638 DG      0.0000
    257 O5'        4.0852    -7.3076  2083.1034 O.3      638 DG      0.0000
    258 C5'        3.1469    -8.3290  2083.5269 C.3      638 DG      0.0000
    259 C4'        1.7842    -7.8154  2083.0791 C.3      638 DG      0.0000
    260 O4'        1.6857    -6.4315  2083.3498 O.3      638 DG      0.0000
    261 C3'        1.4936    -8.0133  2081.5914 C.3      638 DG      0.0000
    262 O3'        0.2971    -8.7421  2081.3829 O.3      638 DG      0.0000
    263 C2'        1.5127    -6.6088  2081.0147 C.3      638 DG      0.0000
    264 C1'        1.1293    -5.7559  2082.2008 C.3      638 DG      0.0000
    265 N9         1.6867    -4.4063  2082.0773 N.ar     638 DG      0.0000
    266 C8         2.9931    -4.0395  2081.9184 C.ar     638 DG      0.0000
    267 N7         3.1715    -2.7433  2081.8403 N.ar     638 DG      0.0000
    268 C5         1.8904    -2.2168  2081.9779 C.ar     638 DG      0.0000
    269 C6         1.4117    -0.8801  2081.9873 C.2      638 DG      0.0000
    270 O6         2.0773     0.1457  2081.8883 O.2      638 DG      0.0000
    271 N1         0.0591    -0.7619  2082.1363 N.am     638 DG      0.0000
    272 C2        -0.7594    -1.8573  2082.2692 C.2      638 DG      0.0000
    273 N2        -2.0605    -1.5992  2082.4048 N.pl3    638 DG      0.0000
    274 N3        -0.3748    -3.1377  2082.2735 N.2      638 DG      0.0000
    275 C4         0.9678    -3.2391  2082.1228 C.ar     638 DG      0.0000
    276 H5'        3.3743    -9.2814  2083.0481 H        638 DG      0.0000
    277 H5''       3.1713    -8.4369  2084.6112 H        638 DG      0.0000
    278 H4'        1.0155    -8.3339  2083.6521 H        638 DG      0.0000
    279 H3'        2.3181    -8.5752  2081.1528 H        638 DG      0.0000
    280 H2'        2.5057    -6.3483  2080.6483 H        638 DG      0.0000
    281 H2''       0.7739    -6.5119  2080.2191 H        638 DG      0.0000
    282 H1'        0.0440    -5.7045  2082.2879 H        638 DG      0.0000
    283 H8         3.8034    -4.7513  2081.8623 H        638 DG      0.0000
    284 H1        -0.3525     0.1604  2082.1492 H        638 DG      0.0000
    285 H21       -2.3884    -0.6439  2082.4058 H        638 DG      0.0000
    286 H22       -2.7181    -2.3589  2082.5066 H        638 DG      0.0000
    287 P         -1.0070    -8.5276  2080.5166 P.3      637 DA      0.0000
    288 OP1       -2.2424    -8.9927  2081.2980 O.co2    637 DA      0.0000
    289 OP2       -0.8144    -9.3556  2079.3239 O.co2    637 DA      0.0000
    290 O5'       -1.1772    -6.9168  2080.3418 O.3      637 DA      0.0000
    291 C5'       -1.8710    -6.3148  2081.4983 C.3      637 DA      0.0000
    292 C4'       -3.1557    -5.7255  2080.9704 C.3      637 DA      0.0000
    293 O4'       -3.0608    -4.3414  2080.7482 O.3      637 DA      0.0000
    294 C3'       -3.5794    -6.3246  2079.6299 C.3      637 DA      0.0000
    295 O3'       -4.9660    -6.5547  2079.5548 O.3      637 DA      0.0000
    296 C2'       -2.9696    -5.3551  2078.6334 C.3      637 DA      0.0000
    297 C1'       -2.8043    -4.0481  2079.3572 C.3      637 DA      0.0000
    298 N9        -1.4700    -3.4666  2079.1317 N.ar     637 DA      0.0000
    299 C8        -0.2653    -4.1093  2078.9453 C.ar     637 DA      0.0000
    300 N7         0.7534    -3.3041  2078.7495 N.ar     637 DA      0.0000
    301 C5         0.1816    -2.0410  2078.8363 C.ar     637 DA      0.0000
    302 C6         0.7469    -0.7487  2078.7307 C.ar     637 DA      0.0000
    303 N6         2.0314    -0.5229  2078.5182 N.pl3    637 DA      0.0000
    304 N1        -0.1186     0.2953  2078.8544 N.ar     637 DA      0.0000
    305 C2        -1.4504     0.0919  2079.0789 C.ar     637 DA      0.0000
    306 N3        -2.0434    -1.0945  2079.1948 N.ar     637 DA      0.0000
    307 C4        -1.1732    -2.1242  2079.0587 C.ar     637 DA      0.0000
    308 H5'       -2.0867    -7.0776  2082.2463 H        637 DA      0.0000
    309 H5''      -1.2537    -5.5297  2081.9349 H        637 DA      0.0000
    310 H4'       -3.9466    -5.9075  2081.6981 H        637 DA      0.0000
    311 H3'       -3.0739    -7.2836  2079.5168 H        637 DA      0.0000
    312 H2'       -3.6315    -5.2300  2077.7765 H        637 DA      0.0000
    313 H2''      -1.9983    -5.7230  2078.3028 H        637 DA      0.0000
    314 H1'       -3.5594    -3.3484  2078.9990 H        637 DA      0.0000
    315 H8        -0.1672    -5.1848  2078.9592 H        637 DA      0.0000
    316 H2        -2.0755     0.9678  2079.1702 H        637 DA      0.0000
    317 H61        2.4712     0.3299  2078.8336 H        637 DA      0.0000
    318 H62        2.5831    -1.2153  2078.0320 H        637 DA      0.0000
    319 P         -5.9947    -6.3668  2078.3702 P.3      636 DA      0.0000
    320 OP1       -7.4554    -6.5056  2078.8901 O.co2    636 DA      0.0000
    321 OP2       -5.7015    -7.4985  2077.4365 O.co2    636 DA      0.0000
    322 O5'       -5.8671    -4.8792  2077.8675 O.3      636 DA      0.0000
    323 C5'       -6.8043    -3.8816  2078.3233 C.3      636 DA      0.0000
    324 C4'       -6.4495    -2.5889  2077.6214 C.3      636 DA      0.0000
    325 O4'       -5.0749    -2.3579  2077.5006 O.3      636 DA      0.0000
    326 C3'       -7.0342    -2.4796  2076.2139 C.3      636 DA      0.0000
    327 O3'       -8.0134    -1.4241  2076.1824 O.3      636 DA      0.0000
    328 C2'       -5.8030    -2.3564  2075.3143 C.3      636 DA      0.0000
    329 C1'       -4.7844    -1.7221  2076.2121 C.3      636 DA      0.0000
    330 N9        -3.3851    -2.0072  2075.9125 N.ar     636 DA      0.0000
    331 C8        -2.7641    -3.2237  2075.7177 C.ar     636 DA      0.0000
    332 N7        -1.4692    -3.1312  2075.5123 N.ar     636 DA      0.0000
    333 C5        -1.2112    -1.7762  2075.5868 C.ar     636 DA      0.0000
    334 C6        -0.0160    -1.0347  2075.4533 C.ar     636 DA      0.0000
    335 N6         1.1713    -1.5814  2075.2102 N.pl3    636 DA      0.0000
    336 N1        -0.1508     0.3223  2075.6022 N.ar     636 DA      0.0000
    337 C2        -1.3392     0.9038  2075.8547 C.ar     636 DA      0.0000
    338 N3        -2.5069     0.2688  2075.9936 N.ar     636 DA      0.0000
    339 C4        -2.3709    -1.0679  2075.8463 C.ar     636 DA      0.0000
    340 H5'       -7.8213    -4.1791  2078.0682 H        636 DA      0.0000
    341 H5''      -6.7148    -3.7543  2079.4021 H        636 DA      0.0000
    342 H4'       -6.8664    -1.7728  2078.2115 H        636 DA      0.0000
    343 H3'       -7.5362    -3.4181  2075.9789 H        636 DA      0.0000
    344 H2'       -5.4679    -3.3364  2074.9744 H        636 DA      0.0000
    345 H2''      -6.0161    -1.7100  2074.4630 H        636 DA      0.0000
    346 H1'       -4.9486    -0.6462  2076.2732 H        636 DA      0.0000
    347 H8        -3.2932    -4.1651  2075.7327 H        636 DA      0.0000
    348 H2        -1.3494     1.9792  2075.9538 H        636 DA      0.0000
    349 H61        1.9672    -1.0333  2075.5042 H        636 DA      0.0000
    350 H62        1.2706    -2.4815  2074.7629 H        636 DA      0.0000
    351 P         -8.7683    -1.1015  2074.7974 P.3      635 DT      0.0000
    352 OP1       -9.9886    -0.2351  2074.8556 O.co2    635 DT      0.0000
    353 OP2       -8.9906    -2.4880  2074.2848 O.co2    635 DT      0.0000
    354 O5'       -7.5726    -0.1775  2074.0943 O.3      635 DT      0.0000
    355 C5'       -7.0025     0.7062  2075.1066 C.3      635 DT      0.0000
    356 C4'       -6.3578     1.8697  2074.4237 C.3      635 DT      0.0000
    357 O4'       -4.9814     1.7187  2074.2432 O.3      635 DT      0.0000
    358 C3'       -6.9507     2.1991  2073.0624 C.3      635 DT      0.0000
    359 O3'       -7.0009     3.6059  2072.7951 O.3      635 DT      0.0000
    360 C2'       -5.9938     1.3990  2072.1691 C.3      635 DT      0.0000
    361 C1'       -4.6550     1.6980  2072.8091 C.3      635 DT      0.0000
    362 N1        -3.6953     0.6018  2072.5791 N.am     635 DT      0.0000
    363 C2        -2.3584     0.9378  2072.4575 C.2      635 DT      0.0000
    364 O2        -1.9911     2.1132  2072.4943 O.2      635 DT      0.0000
    365 N3        -1.4543    -0.0758  2072.2901 N.am     635 DT      0.0000
    366 C4        -1.8368    -1.3801  2072.2416 C.2      635 DT      0.0000
    367 O4        -0.9350    -2.2508  2072.0561 O.2      635 DT      0.0000
    368 C5        -3.2142    -1.7055  2072.3900 C.2      635 DT      0.0000
    369 C7        -3.6756    -3.1425  2072.3379 C.3      635 DT      0.0000
    370 C6        -4.0838    -0.7047  2072.5630 C.2      635 DT      0.0000
    371 H5'       -7.7920     1.0618  2075.7687 H        635 DT      0.0000
    372 H5''      -6.2560     0.1635  2075.6866 H        635 DT      0.0000
    373 H4'       -6.5067     2.7416  2075.0607 H        635 DT      0.0000
    374 H3'       -7.9537     1.7785  2072.9904 H        635 DT      0.0000
    375 H2'       -6.2195     0.3331  2072.1997 H        635 DT      0.0000
    376 H2''      -6.0225     1.7697  2071.1445 H        635 DT      0.0000
    377 H1'       -4.2564     2.6561  2072.4751 H        635 DT      0.0000
    378 H3        -0.4743     0.1513  2072.2000 H        635 DT      0.0000
    379 H6        -5.1298    -0.9394  2072.6943 H        635 DT      0.0000
    380 H71       -4.0268    -3.3757  2071.3327 H        635 DT      0.0000
    381 H72       -4.4883    -3.2889  2073.0494 H        635 DT      0.0000
    382 H73       -2.8452    -3.8003  2072.5944 H        635 DT      0.0000
    383 P         -6.6012    -7.5370  2092.5168 P.3      641 DG      0.0000
    384 OP1       -7.9919    -8.0541  2092.5153 O.co2    641 DG      0.0000
    385 OP2       -6.5436    -6.4233  2093.5725 O.co2    641 DG      0.0000
    386 O5'       -5.4368    -8.6067  2092.6952 O.3      641 DG      0.0000
    387 C5'       -4.5659    -9.1767  2091.6952 C.3      641 DG      0.0000
    388 C4'       -3.1402    -9.0669  2092.1940 C.3      641 DG      0.0000
    389 O4'       -2.5220    -7.8696  2091.7749 O.3      641 DG      0.0000
    390 C3'       -2.9009    -9.1780  2093.6862 C.3      641 DG      0.0000
    391 O3'       -1.9252   -10.2086  2093.9982 O.3      641 DG      0.0000
    392 C2'       -2.4622    -7.7885  2094.1081 C.3      641 DG      0.0000
    393 C1'       -1.8533    -7.2129  2092.8524 C.3      641 DG      0.0000
    394 N9        -2.0424    -5.7512  2092.8234 N.ar     641 DG      0.0000
    395 C8        -3.1804    -5.0143  2093.0523 C.ar     641 DG      0.0000
    396 N7        -3.0056    -3.7152  2092.9626 N.ar     641 DG      0.0000
    397 C5        -1.6561    -3.5838  2092.6456 C.ar     641 DG      0.0000
    398 C6        -0.8463    -2.4434  2092.4196 C.2      641 DG      0.0000
    399 O6        -1.1769    -1.2574  2092.4409 O.2      641 DG      0.0000
    400 N1         0.4661    -2.7076  2092.1381 N.am     641 DG      0.0000
    401 C2         0.9475    -3.9078  2092.0775 C.2      641 DG      0.0000
    402 N2         2.1885    -3.8762  2091.7807 N.pl3    641 DG      0.0000
    403 N3         0.2324    -5.0915  2092.2862 N.2      641 DG      0.0000
    404 C4        -1.0529    -4.8245  2092.5588 C.ar     641 DG      0.0000
    405 H5'       -4.8219   -10.2243  2091.5365 H        641 DG      0.0000
    406 H5''      -4.6713    -8.6270  2090.7598 H        641 DG      0.0000
    407 H4'       -2.5853    -9.8819  2091.7293 H        641 DG      0.0000
    408 H3'       -3.8422    -9.4187  2094.1802 H        641 DG      0.0000
    409 H2'       -3.3150    -7.1937  2094.4351 H        641 DG      0.0000
    410 H2''      -1.7152    -7.8495  2094.8996 H        641 DG      0.0000
    411 H1'       -0.7890    -7.4459  2092.8205 H        641 DG      0.0000
    412 H8        -4.1344    -5.4640  2093.2853 H        641 DG      0.0000
    413 H1         1.0883    -1.9301  2091.9697 H        641 DG      0.0000
    414 H21        2.6507    -2.9899  2091.6363 H        641 DG      0.0000
    415 H22        2.7082    -4.7375  2091.6902 H        641 DG      0.0000
    416 P         -1.2698   -10.3579  2095.4267 P.3      642 DT      0.0000
    417 OP1       -1.0966   -11.7646  2095.9384 O.co2    642 DT      0.0000
    418 OP2       -2.3374    -9.7363  2096.3454 O.co2    642 DT      0.0000
    419 O5'        0.0029    -9.4735  2095.4553 O.3      642 DT      0.0000
    420 C5'        1.3467   -10.0102  2095.3113 C.3      642 DT      0.0000
    421 C4'        2.2506    -8.7966  2095.3688 C.3      642 DT      0.0000
    422 O4'        1.5551    -7.6004  2095.0937 O.3      642 DT      0.0000
    423 C3'        2.9468    -8.5405  2096.6816 C.3      642 DT      0.0000
    424 O3'        4.3611    -8.6954  2096.4934 O.3      642 DT      0.0000
    425 C2'        2.5856    -7.1080  2097.0738 C.3      642 DT      0.0000
    426 C1'        2.2942    -6.5122  2095.7210 C.3      642 DT      0.0000
    427 N1         1.3880    -5.3676  2095.8177 N.am     642 DT      0.0000
    428 C2         1.9215    -4.1229  2095.6198 C.2      642 DT      0.0000
    429 O2         3.1140    -3.9464  2095.3816 O.2      642 DT      0.0000
    430 N3         1.0655    -3.0577  2095.7008 N.am     642 DT      0.0000
    431 C4        -0.2553    -3.1940  2095.9567 C.2      642 DT      0.0000
    432 O4        -0.9157    -2.1232  2096.0020 O.2      642 DT      0.0000
    433 C5        -0.7962    -4.5047  2096.1564 C.2      642 DT      0.0000
    434 C7        -2.2510    -4.6990  2096.4363 C.3      642 DT      0.0000
    435 C6         0.0484    -5.5408  2096.0749 C.2      642 DT      0.0000
    436 H5'        1.5751   -10.6989  2096.1248 H        642 DT      0.0000
    437 H5''       1.4512   -10.5135  2094.3501 H        642 DT      0.0000
    438 H4'        3.0180    -8.9177  2094.6043 H        642 DT      0.0000
    439 H3'        2.5898    -9.2387  2097.4387 H        642 DT      0.0000
    440 H2'        1.7102    -7.0781  2097.7226 H        642 DT      0.0000
    441 H2''       3.4334    -6.6089  2097.5430 H        642 DT      0.0000
    442 H1'        3.2059    -6.2682  2095.1757 H        642 DT      0.0000
    443 H3         1.4370    -2.1287  2095.5633 H        642 DT      0.0000
    444 H6        -0.3337    -6.5412  2096.2153 H        642 DT      0.0000
    445 H71       -2.7535    -5.0389  2095.5308 H        642 DT      0.0000
    446 H72       -2.6875    -3.7545  2096.7611 H        642 DT      0.0000
    447 H73       -2.3735    -5.4449  2097.2216 H        642 DT      0.0000
    448 P          5.1033    -9.3713  2097.7733 P.3      643 DG      0.0000
    449 OP1        6.1488   -10.2177  2097.0582 O.co2    643 DG      0.0000
    450 OP2        4.1318   -10.1437  2098.5268 O.co2    643 DG      0.0000
    451 O5'        5.6834    -7.9726  2098.3828 O.3      643 DG      0.0000
    452 C5'        6.2803    -7.1741  2097.2922 C.3      643 DG      0.0000
    453 C4'        6.4953    -5.7833  2097.8123 C.3      643 DG      0.0000
    454 O4'        5.4404    -4.8768  2097.6317 O.3      643 DG      0.0000
    455 C3'        6.8459    -5.7627  2099.3203 C.3      643 DG      0.0000
    456 O3'        8.0846    -5.0296  2099.4792 O.3      643 DG      0.0000
    457 C2'        5.6194    -5.1615  2099.9729 C.3      643 DG      0.0000
    458 C1'        5.1291    -4.2059  2098.8913 C.3      643 DG      0.0000
    459 N9         3.7059    -3.8923  2099.0609 N.ar     643 DG      0.0000
    460 C8         2.6791    -4.7308  2099.3971 C.ar     643 DG      0.0000
    461 N7         1.5027    -4.1499  2099.4828 N.ar     643 DG      0.0000
    462 C5         1.7838    -2.8260  2099.1528 C.ar     643 DG      0.0000
    463 C6         0.9319    -1.6885  2099.0585 C.2      643 DG      0.0000
    464 O6        -0.2917    -1.6297  2099.2508 O.2      643 DG      0.0000
    465 N1         1.5779    -0.5205  2098.7234 N.am     643 DG      0.0000
    466 C2         2.9203    -0.4782  2098.4996 C.2      643 DG      0.0000
    467 N2         3.3771     0.7425  2098.1908 N.pl3    643 DG      0.0000
    468 N3         3.7563    -1.5116  2098.5707 N.2      643 DG      0.0000
    469 C4         3.1273    -2.6536  2098.8973 C.ar     643 DG      0.0000
    470 H5'        7.2332    -7.6097  2096.9917 H        643 DG      0.0000
    471 H5''       5.6015    -7.1482  2096.4398 H        643 DG      0.0000
    472 H4'        7.3563    -5.3766  2097.2817 H        643 DG      0.0000
    473 H3'        6.9812    -6.7845  2099.6751 H        643 DG      0.0000
    474 H2'        4.8739    -5.9248  2100.1958 H        643 DG      0.0000
    475 H2''       5.8923    -4.6144  2100.8753 H        643 DG      0.0000
    476 H1'        5.7036    -3.2815  2098.9503 H        643 DG      0.0000
    477 H8         2.8231    -5.7859  2099.5777 H        643 DG      0.0000
    478 H1         1.0403     0.3306  2098.6411 H        643 DG      0.0000
    479 H21        2.7382     1.5231  2098.1406 H        643 DG      0.0000
    480 H22        4.3606     0.8824  2098.0082 H        643 DG      0.0000
    481 P          8.7932    -4.9114  2100.8676 P.3      644 DA      0.0000
    482 OP1        9.7651    -5.9894  2101.2229 O.co2    644 DA      0.0000
    483 OP2        7.5158    -5.1108  2101.7633 O.co2    644 DA      0.0000
    484 O5'        9.2018    -3.3995  2101.1167 O.3      644 DA      0.0000
    485 C5'        9.4014    -2.4193  2100.0877 C.3      644 DA      0.0000
    486 C4'        8.6554    -1.1826  2100.5620 C.3      644 DA      0.0000
    487 O4'        7.2613    -1.3847  2100.4716 O.3      644 DA      0.0000
    488 C3'        8.9459    -0.7238  2101.9910 C.3      644 DA      0.0000
    489 O3'        9.1907     0.6969  2102.0433 O.3      644 DA      0.0000
    490 C2'        7.6657    -1.1386  2102.7265 C.3      644 DA      0.0000
    491 C1'        6.6468    -0.8000  2101.6489 C.3      644 DA      0.0000
    492 N9         5.3255    -1.3933  2101.8773 N.ar     644 DA      0.0000
    493 C8         4.9729    -2.6953  2102.0930 C.ar     644 DA      0.0000
    494 N7         3.6817    -2.8773  2102.2580 N.ar     644 DA      0.0000
    495 C5         3.1460    -1.6058  2102.1178 C.ar     644 DA      0.0000
    496 C6         1.8134    -1.1413  2102.1658 C.ar     644 DA      0.0000
    497 N6         0.7504    -1.9187  2102.3856 N.pl3    644 DA      0.0000
    498 N1         1.6578     0.2027  2101.9760 N.ar     644 DA      0.0000
    499 C2         2.7222     1.0092  2101.7582 C.ar     644 DA      0.0000
    500 N3         4.0020     0.6431  2101.7000 N.ar     644 DA      0.0000
    501 C4         4.1363    -0.6826  2101.8868 C.ar     644 DA      0.0000
    502 H5'        8.9929    -2.7716  2099.1405 H        644 DA      0.0000
    503 H5''      10.4635    -2.1988  2099.9799 H        644 DA      0.0000
    504 H4'        8.9148    -0.3627  2099.8922 H        644 DA      0.0000
    505 H3'        9.8016    -1.2668  2102.3925 H        644 DA      0.0000
    506 H2'        7.6621    -2.2006  2102.9720 H        644 DA      0.0000
    507 H2''       7.5109    -0.5299  2103.6174 H        644 DA      0.0000
    508 H1'        6.5619     0.2807  2101.5344 H        644 DA      0.0000
    509 H8         5.6903    -3.5020  2102.1251 H        644 DA      0.0000
    510 H2         2.5125     2.0592  2101.6169 H        644 DA      0.0000
    511 H61        0.7384    -2.9240  2102.2882 H        644 DA      0.0000
    512 H62       -0.1678    -1.5346  2102.2140 H        644 DA      0.0000
    513 P         10.1534     1.3815  2103.1847 P.3      645 DA      0.0000
    514 OP1       11.3250     2.0581  2102.5177 O.co2    645 DA      0.0000
    515 OP2       10.4891     0.2073  2104.0157 O.co2    645 DA      0.0000
    516 O5'        9.2536     2.5872  2103.7156 O.3      645 DA      0.0000
    517 C5'        8.8118     3.6644  2102.8913 C.3      645 DA      0.0000
    518 C4'        7.4665     4.1374  2103.4136 C.3      645 DA      0.0000
    519 O4'        6.5367     3.0915  2103.4417 O.3      645 DA      0.0000
    520 C3'        7.4395     4.7982  2104.7809 C.3      645 DA      0.0000
    521 O3'        7.0254     6.1621  2104.7031 O.3      645 DA      0.0000
    522 C2'        6.5267     3.8860  2105.6096 C.3      645 DA      0.0000
    523 C1'        5.6689     3.2042  2104.6158 C.3      645 DA      0.0000
    524 N9         5.1465     1.8519  2104.8839 N.ar     645 DA      0.0000
    525 C8         5.8110     0.6550  2104.9991 C.ar     645 DA      0.0000
    526 N7         5.0246    -0.3814  2105.1683 N.ar     645 DA      0.0000
    527 C5         3.7452     0.1637  2105.1314 C.ar     645 DA      0.0000
    528 C6         2.4574    -0.4321  2105.2518 C.ar     645 DA      0.0000
    529 N6         2.2212    -1.7239  2105.4434 N.pl3    645 DA      0.0000
    530 N1         1.3939     0.4299  2105.1536 N.ar     645 DA      0.0000
    531 C2         1.5975     1.7660  2104.9646 C.ar     645 DA      0.0000
    532 N3         2.7675     2.3851  2104.8567 N.ar     645 DA      0.0000
    533 C4         3.8024     1.5259  2104.9486 C.ar     645 DA      0.0000
    534 H5'        8.7087     3.3230  2101.8612 H        645 DA      0.0000
    535 H5''       9.5317     4.4815  2102.9372 H        645 DA      0.0000
    536 H4'        7.0925     4.8724  2102.7009 H        645 DA      0.0000
    537 H3'        8.4434     4.7630  2105.2041 H        645 DA      0.0000
    538 H2'        7.1161     3.1602  2106.1699 H        645 DA      0.0000
    539 H2''       5.9164     4.4807  2106.2892 H        645 DA      0.0000
    540 H1'        4.8325     3.8585  2104.3698 H        645 DA      0.0000
    541 H8         6.8870     0.5742  2104.9542 H        645 DA      0.0000
    542 H2         0.7149     2.3846  2104.8954 H        645 DA      0.0000
    543 H61        2.9350    -2.3597  2105.7696 H        645 DA      0.0000
    544 H62        1.2960    -2.0836  2105.2566 H        645 DA      0.0000
    545 P          7.5541     7.3664  2105.6593 P.3      646 DT      0.0000
    546 OP1        7.8183     8.6387  2104.8620 O.co2    646 DT      0.0000
    547 OP2        8.6603     6.9200  2106.4799 O.co2    646 DT      0.0000
    548 O5'        6.1821     7.7672  2106.4730 O.3      646 DT      0.0000
    549 C5'        5.0287     7.7326  2105.5279 C.3      646 DT      0.0000
    550 C4'        3.9204     7.0814  2106.3156 C.3      646 DT      0.0000
    551 O4'        4.1003     5.6962  2106.5076 O.3      646 DT      0.0000
    552 C3'        3.7893     7.6708  2107.7322 C.3      646 DT      0.0000
    553 O3'        2.7562     8.6386  2107.7339 O.3      646 DT      0.0000
    554 C2'        3.5374     6.4616  2108.6294 C.3      646 DT      0.0000
    555 C1'        3.2050     5.3943  2107.6648 C.3      646 DT      0.0000
    556 N1         3.4203     3.9967  2108.0046 N.am     646 DT      0.0000
    557 C2         2.2868     3.2017  2108.1425 C.2      646 DT      0.0000
    558 O2         1.1749     3.7063  2108.0545 O.2      646 DT      0.0000
    559 N3         2.4582     1.8744  2108.3965 N.am     646 DT      0.0000
    560 C4         3.6910     1.2995  2108.5167 C.2      646 DT      0.0000
    561 O4         3.7677     0.0553  2108.7719 O.2      646 DT      0.0000
    562 C5         4.8443     2.1339  2108.3451 C.2      646 DT      0.0000
    563 C7         6.2255     1.5462  2108.4326 C.3      646 DT      0.0000
    564 C6         4.6697     3.4419  2108.0893 C.2      646 DT      0.0000
    565 H5'        4.7467     8.7414  2105.2262 H        646 DT      0.0000
    566 H5''       5.2747     7.1310  2104.6529 H        646 DT      0.0000
    567 H4'        2.9805     7.2388  2105.7865 H        646 DT      0.0000
    568 H3'        4.7294     8.1435  2108.0165 H        646 DT      0.0000
    569 H2'        4.4288     6.2072  2109.2029 H        646 DT      0.0000
    570 H2''       2.6956     6.6495  2109.2959 H        646 DT      0.0000
    571 H1'        2.1699     5.5207  2107.3475 H        646 DT      0.0000
    572 H3         1.6399     1.2915  2108.5002 H        646 DT      0.0000
    573 H6         5.5360     4.0710  2107.9472 H        646 DT      0.0000
    574 H71        6.1543     0.4796  2108.6456 H        646 DT      0.0000
    575 H72        6.7434     1.6934  2107.4848 H        646 DT      0.0000
    576 H73        6.7805     2.0398  2109.2304 H        646 DT      0.0000
    577 P          2.3728     9.6574  2108.8405 P.3      647 DT      0.0000
    578 OP1        1.6000    10.8544  2108.2284 O.co2    647 DT      0.0000
    579 OP2        3.6475    10.0880  2109.4704 O.co2    647 DT      0.0000
    580 O5'        1.2710     8.8962  2109.7228 O.3      647 DT      0.0000
    581 C5'        0.0167     8.7202  2109.0110 C.3      647 DT      0.0000
    582 C4'       -0.7702     7.6517  2109.6872 C.3      647 DT      0.0000
    583 O4'       -0.1439     6.3751  2109.6639 O.3      647 DT      0.0000
    584 C3'       -1.1140     7.9491  2111.1538 C.3      647 DT      0.0000
    585 O3'       -2.4624     7.6111  2111.4179 O.3      647 DT      0.0000
    586 C2'       -0.1738     6.9654  2111.8902 C.3      647 DT      0.0000
    587 C1'       -0.3915     5.7688  2110.9866 C.3      647 DT      0.0000
    588 N1         0.5555     4.7101  2111.2843 N.am     647 DT      0.0000
    589 C2         0.0926     3.4055  2111.3391 C.2      647 DT      0.0000
    590 O2        -1.1055     3.1896  2111.1507 O.2      647 DT      0.0000
    591 N3         0.9916     2.4114  2111.6050 N.am     647 DT      0.0000
    592 C4         2.3129     2.6643  2111.8121 C.2      647 DT      0.0000
    593 O4         3.0889     1.6914  2112.0354 O.2      647 DT      0.0000
    594 C5         2.7787     4.0099  2111.7470 C.2      647 DT      0.0000
    595 C7         4.2209     4.3687  2111.9569 C.3      647 DT      0.0000
    596 C6         1.8821     4.9738  2111.4859 C.2      647 DT      0.0000
    597 H5'       -0.5460     9.6536  2109.0235 H        647 DT      0.0000
    598 H5''       0.2189     8.4288  2107.9803 H        647 DT      0.0000
    599 H4'       -1.7132     7.5573  2109.1487 H        647 DT      0.0000
    600 H3'       -0.8992     8.9850  2111.4163 H        647 DT      0.0000
    601 H2'        0.8626     7.3027  2111.8889 H        647 DT      0.0000
    602 H2''      -0.5241     6.7658  2112.9029 H        647 DT      0.0000
    603 H1'       -1.4165     5.4059  2111.0622 H        647 DT      0.0000
    604 H3         0.6647     1.4568  2111.6494 H        647 DT      0.0000
    605 H6         2.2216     5.9977  2111.4328 H        647 DT      0.0000
    606 H71        4.7957     3.4641  2112.1558 H        647 DT      0.0000
    607 H72        4.6080     4.8552  2111.0616 H        647 DT      0.0000
    608 H73        4.3067     5.0476  2112.8053 H        647 DT      0.0000
    609 P         -3.7154     8.3346  2112.0258 P.3      648 DC      0.0000
    610 OP1       -4.7454     8.6487  2110.9579 O.co2    648 DC      0.0000
    611 OP2       -3.1777     9.4940  2112.7608 O.co2    648 DC      0.0000
    612 O5'       -4.2845     7.0485  2112.8518 O.3      648 DC      0.0000
    613 C5'       -4.3599     5.9881  2111.8296 C.3      648 DC      0.0000
    614 C4'       -4.8113     4.7360  2112.5261 C.3      648 DC      0.0000
    615 O4'       -3.7629     3.8512  2112.7730 O.3      648 DC      0.0000
    616 C3'       -5.5903     4.9588  2113.8175 C.3      648 DC      0.0000
    617 O3'       -6.8654     4.3356  2113.7379 O.3      648 DC      0.0000
    618 C2'       -4.5993     4.4492  2114.8663 C.3      648 DC      0.0000
    619 C1'       -3.8170     3.4072  2114.1699 C.3      648 DC      0.0000
    620 N1        -2.3923     3.3081  2114.5020 N.am     648 DC      0.0000
    621 C2        -1.9150     2.0244  2114.7578 C.2      648 DC      0.0000
    622 O2        -2.6698     1.0471  2114.7623 O.2      648 DC      0.0000
    623 N3        -0.5763     1.8902  2115.0316 N.2      648 DC      0.0000
    624 C4         0.2639     2.9646  2115.0217 C.2      648 DC      0.0000
    625 N4         1.5423     2.7325  2115.2986 N.pl3    648 DC      0.0000
    626 C5        -0.2312     4.2577  2114.7437 C.2      648 DC      0.0000
    627 C6        -1.5488     4.3733  2114.4789 C.2      648 DC      0.0000
    628 H5'       -5.0762     6.2646  2111.0559 H        648 DC      0.0000
    629 H5''      -3.3770     5.8311  2111.3854 H        648 DC      0.0000
    630 H4'       -5.4893     4.2281  2111.8401 H        648 DC      0.0000
    631 H3'       -5.7321     6.0299  2113.9608 H        648 DC      0.0000
    632 H2'       -3.9490     5.2561  2115.2042 H        648 DC      0.0000
    633 H2''      -5.1343     4.0169  2115.7119 H        648 DC      0.0000
    634 H1'       -4.3041     2.4355  2114.2509 H        648 DC      0.0000
    635 H5         0.4193     5.1198  2114.7431 H        648 DC      0.0000
    636 H6        -1.9479     5.3479  2114.2399 H        648 DC      0.0000
    637 H41        1.8533     1.7925  2115.4978 H        648 DC      0.0000
    638 H42        2.2032     3.4962  2115.3099 H        648 DC      0.0000
    639 P         -8.1443     4.6380  2114.6899 P.3      649 DA      0.0000
    640 OP1       -9.3840     4.2729  2113.8962 O.co2    649 DA      0.0000
    641 OP2       -8.1205     6.0739  2115.0354 O.co2    649 DA      0.0000
    642 O5'       -7.9154     3.6514  2115.9869 O.3      649 DA      0.0000
    643 C5'       -7.6883     2.2391  2115.6917 C.3      649 DA      0.0000
    644 C4'       -7.3979     1.4837  2116.9470 C.3      649 DA      0.0000
    645 O4'       -6.0130     1.2182  2117.1891 O.3      649 DA      0.0000
    646 C3'       -7.8289     2.1733  2118.2522 C.3      649 DA      0.0000
    647 O3'       -7.9147     1.1858  2119.2821 O.3      649 DA      0.0000
    648 C2'       -6.6061     3.0875  2118.4668 C.3      649 DA      0.0000
    649 C1'       -5.5415     2.0007  2118.2835 C.3      649 DA      0.0000
    650 N9        -4.2323     2.6243  2118.1892 N.ar     649 DA      0.0000
    651 C8        -3.8790     3.9401  2118.0734 C.ar     649 DA      0.0000
    652 N7        -2.5781     4.1689  2118.0548 N.ar     649 DA      0.0000
    653 C5        -2.0320     2.8977  2118.1623 C.ar     649 DA      0.0000
    654 C6        -0.6915     2.4404  2118.1968 C.ar     649 DA      0.0000
    655 N6         0.3693     3.2228  2118.1116 N.pl3    649 DA      0.0000
    656 N1        -0.5193     1.0923  2118.3294 N.ar     649 DA      0.0000
    657 C2        -1.5913     0.2438  2118.4096 C.ar     649 DA      0.0000
    658 N3        -2.8744     0.5964  2118.3797 N.ar     649 DA      0.0000
    659 C4        -3.0265     1.9378  2118.2567 C.ar     649 DA      0.0000
    660 H5'       -8.5788     1.8233  2115.2205 H        649 DA      0.0000
    661 H5''      -6.8426     2.1447  2115.0104 H        649 DA      0.0000
    662 H4'       -7.9160     0.5266  2116.8881 H        649 DA      0.0000
    663 H3'       -8.7548     2.7371  2118.1385 H        649 DA      0.0000
    664 H2'       -6.5347     3.8744  2117.7160 H        649 DA      0.0000
    665 H2''      -6.5874     3.4973  2119.4767 H        649 DA      0.0000
    666 H1'       -5.5491     1.3710  2119.1732 H        649 DA      0.0000
    667 H8        -4.6088     4.7331  2118.0024 H        649 DA      0.0000
    668 H2        -1.3754    -0.8100  2118.5060 H        649 DA      0.0000
    669 H61        1.3547     3.0941  2118.2916 H        649 DA      0.0000
    670 H62        0.1455     4.1560  2117.7968 H        649 DA      0.0000
    671 P         -9.1949     0.2362  2119.4226 P.3      650 DC      0.0000
    672 OP1      -10.0106     0.1617  2118.1775 O.co2    650 DC      0.0000
    673 OP2       -9.9351     0.8687  2120.5655 O.co2    650 DC      0.0000
    674 O5'       -8.5616    -1.1897  2119.7058 O.3      650 DC      0.0000
    675 C5'       -8.0663    -2.0278  2118.6180 C.3      650 DC      0.0000
    676 C4'       -6.9640    -2.8263  2119.3230 C.3      650 DC      0.0000
    677 O4'       -5.9267    -1.9255  2119.6350 O.3      650 DC      0.0000
    678 C3'       -7.4116    -3.4696  2120.6329 C.3      650 DC      0.0000
    679 O3'       -7.1042    -4.8805  2120.7008 O.3      650 DC      0.0000
    680 C2'       -6.7032    -2.6408  2121.7151 C.3      650 DC      0.0000
    681 C1'       -5.4588    -2.2288  2121.0389 C.3      650 DC      0.0000
    682 N1        -4.7742    -0.9877  2121.3918 N.am     650 DC      0.0000
    683 C2        -3.3823    -1.0511  2121.3649 C.2      650 DC      0.0000
    684 O2        -2.7714    -2.0920  2121.1580 O.2      650 DC      0.0000
    685 N3        -2.6995     0.0977  2121.6180 N.2      650 DC      0.0000
    686 C4        -3.3225     1.2781  2121.8514 C.2      650 DC      0.0000
    687 N4        -2.5454     2.3346  2122.0823 N.pl3    650 DC      0.0000
    688 C5        -4.7435     1.3328  2121.8579 C.2      650 DC      0.0000
    689 C6        -5.4105     0.1953  2121.6085 C.2      650 DC      0.0000
    690 H5'       -8.8478    -2.6830  2118.2332 H        650 DC      0.0000
    691 H5''      -7.6482    -1.4155  2117.8190 H        650 DC      0.0000
    692 H4'       -6.5864    -3.5964  2118.6503 H        650 DC      0.0000
    693 H3'       -8.4885    -3.3389  2120.7388 H        650 DC      0.0000
    694 H2'       -7.3005    -1.7754  2122.0021 H        650 DC      0.0000
    695 H2''      -6.4800    -3.2580  2122.5854 H        650 DC      0.0000
    696 H1'       -4.7493    -3.0561  2121.0257 H        650 DC      0.0000
    697 H5        -5.2670     2.2563  2122.0564 H        650 DC      0.0000
    698 H6        -6.4898     0.2197  2121.5788 H        650 DC      0.0000
    699 H41       -1.5404     2.2343  2122.0712 H        650 DC      0.0000
    700 H42       -2.9610     3.2361  2122.2684 H        650 DC      0.0000
    701 P          7.6738     3.6276  2123.6603 P.3      650 DG      0.0000
    702 OP1        8.9863     4.3221  2123.8391 O.co2    650 DG      0.0000
    703 OP2        6.8093     4.2563  2122.5755 O.co2    650 DG      0.0000
    704 O5'        7.9332     2.0155  2123.4531 O.3      650 DG      0.0000
    705 C5'        7.6158     1.0944  2124.5489 C.3      650 DG      0.0000
    706 C4'        7.0337    -0.1668  2123.9146 C.3      650 DG      0.0000
    707 O4'        5.6366    -0.1096  2123.8188 O.3      650 DG      0.0000
    708 C3'        7.5485    -0.4619  2122.5082 C.3      650 DG      0.0000
    709 O3'        7.7867    -1.8633  2122.2412 O.3      650 DG      0.0000
    710 C2'        6.4367     0.1032  2121.6060 C.3      650 DG      0.0000
    711 C1'        5.2044    -0.2318  2122.4298 C.3      650 DG      0.0000
    712 N9         4.1102     0.7154  2122.1565 N.ar     650 DG      0.0000
    713 C8         4.1919     2.0787  2121.9998 C.ar     650 DG      0.0000
    714 N7         3.0413     2.6579  2121.7814 N.ar     650 DG      0.0000
    715 C5         2.1331     1.6061  2121.8062 C.ar     650 DG      0.0000
    716 C6         0.7215     1.5822  2121.6497 C.2      650 DG      0.0000
    717 O6        -0.0178     2.5571  2121.4529 O.2      650 DG      0.0000
    718 N1         0.1644     0.3302  2121.7366 N.am     650 DG      0.0000
    719 C2         0.9020    -0.7855  2121.9573 C.2      650 DG      0.0000
    720 N2         0.2244    -1.9284  2122.0207 N.pl3    650 DG      0.0000
    721 N3         2.2309    -0.8181  2122.1150 N.2      650 DG      0.0000
    722 C4         2.7769     0.4106  2122.0317 C.ar     650 DG      0.0000
    723 H5'        8.5198     0.8501  2125.1066 H        650 DG      0.0000
    724 H5''       6.8809     1.5482  2125.2138 H        650 DG      0.0000
    725 H4'        7.2923    -1.0128  2124.5513 H        650 DG      0.0000
    726 H3'        8.4684     0.0975  2122.3378 H        650 DG      0.0000
    727 H2'        6.5436     1.1785  2121.4633 H        650 DG      0.0000
    728 H2''       6.4147    -0.4149  2120.6472 H        650 DG      0.0000
    729 H1'        4.8798    -1.2520  2122.2245 H        650 DG      0.0000
    730 H8         5.1236     2.6222  2122.0526 H        650 DG      0.0000
    731 H1        -0.8358     0.2368  2121.6318 H        650 DG      0.0000
    732 H21       -0.7790    -1.9276  2121.9056 H        650 DG      0.0000
    733 H22        0.7133    -2.7970  2122.1838 H        650 DG      0.0000
    734 P          7.5942    -2.3215  2120.7178 P.3      649 DT      0.0000
    735 OP1        8.4441    -3.5005  2120.3269 O.co2    649 DT      0.0000
    736 OP2        8.0306    -1.0887  2120.0172 O.co2    649 DT      0.0000
    737 O5'        6.0417    -2.6954  2120.5869 O.3      649 DT      0.0000
    738 C5'        5.6738    -4.0864  2120.8545 C.3      649 DT      0.0000
    739 C4'        4.4013    -4.3987  2120.0974 C.3      649 DT      0.0000
    740 O4'        3.4942    -3.3111  2120.0702 O.3      649 DT      0.0000
    741 C3'        4.6482    -4.7673  2118.6427 C.3      649 DT      0.0000
    742 O3'        3.7883    -5.8165  2118.1476 O.3      649 DT      0.0000
    743 C2'        4.4147    -3.4593  2117.9199 C.3      649 DT      0.0000
    744 C1'        3.2094    -2.9580  2118.6980 C.3      649 DT      0.0000
    745 N1         3.1860    -1.4947  2118.5467 N.am     649 DT      0.0000
    746 C2         1.9399    -0.8855  2118.6535 C.2      649 DT      0.0000
    747 O2         0.9329    -1.5593  2118.8432 O.2      649 DT      0.0000
    748 N3         1.8981     0.4754  2118.5333 N.am     649 DT      0.0000
    749 C4         3.0219     1.2148  2118.3157 C.2      649 DT      0.0000
    750 O4         2.8832     2.4789  2118.2182 O.2      649 DT      0.0000
    751 C5         4.2836     0.5628  2118.2093 C.2      649 DT      0.0000
    752 C7         5.5301     1.3687  2117.9804 C.3      649 DT      0.0000
    753 C6         4.3185    -0.7667  2118.3311 C.2      649 DT      0.0000
    754 H5'        6.4724    -4.7489  2120.5208 H        649 DT      0.0000
    755 H5''       5.5073    -4.2224  2121.9231 H        649 DT      0.0000
    756 H4'        3.9109    -5.2410  2120.5854 H        649 DT      0.0000
    757 H3'        5.6891    -5.0663  2118.5187 H        649 DT      0.0000
    758 H2'        5.2669    -2.7859  2118.0114 H        649 DT      0.0000
    759 H2''       4.1616    -3.6302  2116.8735 H        649 DT      0.0000
    760 H1'        2.2839    -3.4150  2118.3473 H        649 DT      0.0000
    761 H3         1.0081     0.9470  2118.6080 H        649 DT      0.0000
    762 H6         5.2671    -1.2776  2118.2570 H        649 DT      0.0000
    763 H71        5.2726     2.4255  2117.9117 H        649 DT      0.0000
    764 H72        6.2189     1.2160  2118.8113 H        649 DT      0.0000
    765 H73        6.0041     1.0491  2117.0522 H        649 DT      0.0000
    766 P          4.7577    -6.9160  2117.3692 P.3      648 DG      0.0000
    767 OP1        5.1858    -8.0518  2118.2405 O.co2    648 DG      0.0000
    768 OP2        5.8499    -5.9964  2116.9637 O.co2    648 DG      0.0000
    769 O5'        3.7319    -7.4942  2116.2884 O.3      648 DG      0.0000
    770 C5'        2.7459    -8.4696  2116.7119 C.3      648 DG      0.0000
    771 C4'        1.4093    -7.8916  2116.2642 C.3      648 DG      0.0000
    772 O4'        1.3770    -6.5046  2116.5349 O.3      648 DG      0.0000
    773 C3'        1.1096    -8.0754  2114.7764 C.3      648 DG      0.0000
    774 O3'       -0.1203    -8.7463  2114.5679 O.3      648 DG      0.0000
    775 C2'        1.1957    -6.6735  2114.1997 C.3      648 DG      0.0000
    776 C1'        0.8534    -5.8032  2115.3859 C.3      648 DG      0.0000
    777 N9         1.4746    -4.4817  2115.2623 N.ar     648 DG      0.0000
    778 C8         2.7970    -4.1777  2115.1034 C.ar     648 DG      0.0000
    779 N7         3.0370    -2.8915  2115.0254 N.ar     648 DG      0.0000
    780 C5         1.7825    -2.3045  2115.1629 C.ar     648 DG      0.0000
    781 C6         1.3681    -0.9465  2115.1724 C.2      648 DG      0.0000
    782 O6         2.0819     0.0464  2115.0733 O.2      648 DG      0.0000
    783 N1         0.0226    -0.7638  2115.3213 N.am     648 DG      0.0000
    784 C2        -0.8472    -1.8190  2115.4542 C.2      648 DG      0.0000
    785 N2        -2.1344    -1.4990  2115.5899 N.pl3    648 DG      0.0000
    786 N3        -0.5241    -3.1162  2115.4585 N.2      648 DG      0.0000
    787 C4         0.8122    -3.2815  2115.3078 C.ar     648 DG      0.0000
    788 H5'        2.9276    -9.4319  2116.2332 H        648 DG      0.0000
    789 H5''       2.7651    -8.5786  2117.7962 H        648 DG      0.0000
    790 H4'        0.6167    -8.3729  2116.8372 H        648 DG      0.0000
    791 H3'        1.9063    -8.6761  2114.3379 H        648 DG      0.0000
    792 H2'        2.2000    -6.4606  2113.8334 H        648 DG      0.0000
    793 H2''       0.4623    -6.5414  2113.4042 H        648 DG      0.0000
    794 H1'       -0.2282    -5.7001  2115.4729 H        648 DG      0.0000
    795 H8         3.5724    -4.9273  2115.0473 H        648 DG      0.0000
    796 H1        -0.3445     0.1770  2115.3342 H        648 DG      0.0000
    797 H21       -2.4164    -0.5292  2115.5908 H        648 DG      0.0000
    798 H22       -2.8275    -2.2265  2115.6917 H        648 DG      0.0000
    799 P         -1.4127    -8.4698  2113.7016 P.3      647 DA      0.0000
    800 OP1       -2.6689    -8.8754  2114.4830 O.co2    647 DA      0.0000
    801 OP2       -1.2598    -9.3061  2112.5089 O.co2    647 DA      0.0000
    802 O5'       -1.5058    -6.8528  2113.5268 O.3      647 DA      0.0000
    803 C5'       -2.1702    -6.2183  2114.6833 C.3      647 DA      0.0000
    804 C4'       -3.4253    -5.5684  2114.1555 C.3      647 DA      0.0000
    805 O4'       -3.2645    -4.1904  2113.9332 O.3      647 DA      0.0000
    806 C3'       -3.8771    -6.1466  2112.8150 C.3      647 DA      0.0000
    807 O3'       -5.2731    -6.3103  2112.7398 O.3      647 DA      0.0000
    808 C2'       -3.2217    -5.2074  2111.8184 C.3      647 DA      0.0000
    809 C1'       -2.9943    -3.9097  2112.5423 C.3      647 DA      0.0000
    810 N9        -1.6337    -3.3925  2112.3167 N.ar     647 DA      0.0000
    811 C8        -0.4610    -4.0920  2112.1304 C.ar     647 DA      0.0000
    812 N7         0.5949    -3.3363  2111.9345 N.ar     647 DA      0.0000
    813 C5         0.0840    -2.0473  2112.0214 C.ar     647 DA      0.0000
    814 C6         0.7103    -0.7835  2111.9157 C.ar     647 DA      0.0000
    815 N6         2.0041    -0.6193  2111.7032 N.pl3    647 DA      0.0000
    816 N1        -0.1044     0.3006  2112.0394 N.ar     647 DA      0.0000
    817 C2        -1.4444     0.1610  2112.2639 C.ar     647 DA      0.0000
    818 N3        -2.0933    -0.9958  2112.3798 N.ar     647 DA      0.0000
    819 C4        -1.2732    -2.0658  2112.2437 C.ar     647 DA      0.0000
    820 H5'       -2.4220    -6.9700  2115.4313 H        647 DA      0.0000
    821 H5''      -1.5161    -5.4636  2115.1200 H        647 DA      0.0000
    822 H4'       -4.2239    -5.7125  2114.8832 H        647 DA      0.0000
    823 H3'       -3.4179    -7.1287  2112.7019 H        647 DA      0.0000
    824 H2'       -3.8769    -5.0508  2110.9615 H        647 DA      0.0000
    825 H2''      -2.2691    -5.6212  2111.4879 H        647 DA      0.0000
    826 H1'       -3.7151    -3.1748  2112.1841 H        647 DA      0.0000
    827 H8        -0.4143    -5.1709  2112.1443 H        647 DA      0.0000
    828 H2        -2.0269     1.0657  2112.3552 H        647 DA      0.0000
    829 H61        2.4841     0.2116  2112.0187 H        647 DA      0.0000
    830 H62        2.5221    -1.3371  2111.2170 H        647 DA      0.0000
    831 P         -6.2916    -6.0735  2111.5552 P.3      646 DA      0.0000
    832 OP1       -7.7572    -6.1425  2112.0751 O.co2    646 DA      0.0000
    833 OP2       -6.0527    -7.2180  2110.6215 O.co2    646 DA      0.0000
    834 O5'       -6.0932    -4.5937  2111.0525 O.3      646 DA      0.0000
    835 C5'       -6.9817    -3.5525  2111.5083 C.3      646 DA      0.0000
    836 C4'       -6.5657    -2.2782  2110.8064 C.3      646 DA      0.0000
    837 O4'       -5.1816    -2.1131  2110.6857 O.3      646 DA      0.0000
    838 C3'       -7.1445    -2.1411  2109.3989 C.3      646 DA      0.0000
    839 O3'       -8.0723    -1.0401  2109.3674 O.3      646 DA      0.0000
    840 C2'       -5.9088    -2.0768  2108.4993 C.3      646 DA      0.0000
    841 C1'       -4.8611    -1.4918  2109.3971 C.3      646 DA      0.0000
    842 N9        -3.4770    -1.8435  2109.0975 N.ar     646 DA      0.0000
    843 C8        -2.9148    -3.0881  2108.9028 C.ar     646 DA      0.0000
    844 N7        -1.6169    -3.0575  2108.6973 N.ar     646 DA      0.0000
    845 C5        -1.2946    -1.7164  2108.7719 C.ar     646 DA      0.0000
    846 C6        -0.0653    -1.0328  2108.6384 C.ar     646 DA      0.0000
    847 N6         1.0946    -1.6355  2108.3952 N.pl3    646 DA      0.0000
    848 N1        -0.1352     0.3292  2108.7872 N.ar     646 DA      0.0000
    849 C2        -1.2945     0.9667  2109.0397 C.ar     646 DA      0.0000
    850 N3        -2.4912     0.3881  2109.1786 N.ar     646 DA      0.0000
    851 C4        -2.4192    -0.9536  2109.0314 C.ar     646 DA      0.0000
    852 H5'       -8.0118    -3.8012  2111.2532 H        646 DA      0.0000
    853 H5''      -6.8863    -3.4297  2112.5872 H        646 DA      0.0000
    854 H4'       -6.9431    -1.4432  2111.3965 H        646 DA      0.0000
    855 H3'       -7.6907    -3.0546  2109.1639 H        646 DA      0.0000
    856 H2'       -5.6209    -3.0717  2108.1594 H        646 DA      0.0000
    857 H2''      -6.0909    -1.4210  2107.6480 H        646 DA      0.0000
    858 H1'       -4.9738    -0.4094  2109.4582 H        646 DA      0.0000
    859 H8        -3.4881    -4.0032  2108.9177 H        646 DA      0.0000
    860 H2        -1.2534     2.0413  2109.1388 H        646 DA      0.0000
    861 H61        1.9156    -1.1260  2108.6892 H        646 DA      0.0000
    862 H62        1.1508    -2.5393  2107.9479 H        646 DA      0.0000
    863 P         -8.8108    -0.6819  2107.9825 P.3      645 DT      0.0000
    864 OP1       -9.9884     0.2418  2108.0406 O.co2    645 DT      0.0000
    865 OP2       -9.0991    -2.0563  2107.4698 O.co2    645 DT      0.0000
    866 O5'       -7.5724     0.1840  2107.2793 O.3      645 DT      0.0000
    867 C5'       -6.9608     1.0395  2108.2916 C.3      645 DT      0.0000
    868 C4'       -6.2614     2.1709  2107.6087 C.3      645 DT      0.0000
    869 O4'       -4.8938     1.9544  2107.4283 O.3      645 DT      0.0000
    870 C3'       -6.8379     2.5282  2106.2474 C.3      645 DT      0.0000
    871 O3'       -6.8209     3.9358  2105.9802 O.3      645 DT      0.0000
    872 C2'       -5.9202     1.6834  2105.3541 C.3      645 DT      0.0000
    873 C1'       -4.5687     1.9182  2105.9941 C.3      645 DT      0.0000
    874 N1        -3.6623     0.7774  2105.7642 N.am     645 DT      0.0000
    875 C2        -2.3110     1.0492  2105.6425 C.2      645 DT      0.0000
    876 O2        -1.8880     2.2058  2105.6793 O.2      645 DT      0.0000
    877 N3        -1.4563    -0.0064  2105.4751 N.am     645 DT      0.0000
    878 C4        -1.9006    -1.2909  2105.4266 C.2      645 DT      0.0000
    879 O4        -1.0413    -2.2036  2105.2411 O.2      645 DT      0.0000
    880 C5        -3.2919    -1.5502  2105.5750 C.2      645 DT      0.0000
    881 C7        -3.8214    -2.9636  2105.5229 C.3      645 DT      0.0000
    882 C6        -4.1128    -0.5090  2105.7480 C.2      645 DT      0.0000
    883 H5'       -7.7325     1.4323  2108.9537 H        645 DT      0.0000
    884 H5''      -6.2411     0.4618  2108.8717 H        645 DT      0.0000
    885 H4'       -6.3684     3.0489  2108.2457 H        645 DT      0.0000
    886 H3'       -7.8598     2.1560  2106.1754 H        645 DT      0.0000
    887 H2'       -6.1965     0.6294  2105.3847 H        645 DT      0.0000
    888 H2''      -5.9312     2.0550  2104.3295 H        645 DT      0.0000
    889 H1'       -4.1248     2.8561  2105.6602 H        645 DT      0.0000
    890 H3        -0.4665     0.1738  2105.3850 H        645 DT      0.0000
    891 H6        -5.1688    -0.6936  2105.8794 H        645 DT      0.0000
    892 H71       -4.1833    -3.1797  2104.5177 H        645 DT      0.0000
    893 H72       -4.6401    -3.0710  2106.2345 H        645 DT      0.0000
    894 H73       -3.0233    -3.6603  2105.7794 H        645 DT      0.0000
    895 P         -7.3290     4.3790  2104.4902 P.3      644 DT      0.0000
    896 OP1       -8.6265     5.1758  2104.6382 O.co2    644 DT      0.0000
    897 OP2       -7.6158     3.0658  2103.8204 O.co2    644 DT      0.0000
    898 O5'       -6.1984     5.2152  2103.8382 O.3      644 DT      0.0000
    899 C5'       -5.2851     6.0148  2104.5896 C.3      644 DT      0.0000
    900 C4'       -3.9921     6.0776  2103.8416 C.3      644 DT      0.0000
    901 O4'       -3.1962     4.9247  2103.7846 O.3      644 DT      0.0000
    902 C3'       -4.0399     6.5599  2102.3756 C.3      644 DT      0.0000
    903 O3'       -2.8021     7.2701  2102.2718 O.3      644 DT      0.0000
    904 C2'       -4.0065     5.2294  2101.6118 C.3      644 DT      0.0000
    905 C1'       -2.8688     4.5977  2102.3875 C.3      644 DT      0.0000
    906 N1        -2.7537     3.1404  2102.2814 N.am     644 DT      0.0000
    907 C2        -1.4449     2.6397  2102.2807 C.2      644 DT      0.0000
    908 O2        -0.4737     3.3977  2102.3238 O.2      644 DT      0.0000
    909 N3        -1.2991     1.2833  2102.2273 N.am     644 DT      0.0000
    910 C4        -2.3596     0.4288  2102.1675 C.2      644 DT      0.0000
    911 O4        -2.1197    -0.8145  2102.1051 O.2      644 DT      0.0000
    912 C5        -3.6767     0.9637  2102.1758 C.2      644 DT      0.0000
    913 C7        -4.8642     0.0258  2102.1144 C.3      644 DT      0.0000
    914 C6        -3.8146     2.2911  2102.2423 C.2      644 DT      0.0000
    915 H5'       -5.6893     7.0197  2104.7118 H        644 DT      0.0000
    916 H5''      -5.1215     5.5635  2105.5682 H        644 DT      0.0000
    917 H4'       -3.3899     6.8175  2104.3689 H        644 DT      0.0000
    918 H3'       -4.9129     7.1711  2102.1468 H        644 DT      0.0000
    919 H2'       -3.7686     5.3608  2100.5562 H        644 DT      0.0000
    920 H2''      -4.9343     4.6726  2101.7434 H        644 DT      0.0000
    921 H1'       -1.9247     5.0657  2102.1085 H        644 DT      0.0000
    922 H3        -0.3660     0.8966  2102.2322 H        644 DT      0.0000
    923 H6        -4.8111     2.7068  2102.2660 H        644 DT      0.0000
    924 H71       -4.5120    -1.0046  2102.0655 H        644 DT      0.0000
    925 H72       -5.4577     0.2491  2101.2278 H        644 DT      0.0000
    926 H73       -5.4781     0.1581  2103.0053 H        644 DT      0.0000
    927 P         -2.3691     8.2236  2101.1256 P.3      643 DC      0.0000
    928 OP1       -1.8340     9.5208  2101.7347 O.co2    643 DC      0.0000
    929 OP2       -3.6124     8.5107  2100.3437 O.co2    643 DC      0.0000
    930 O5'       -1.2270     7.3273  2100.3862 O.3      643 DC      0.0000
    931 C5'        0.0426     7.2248  2101.1107 C.3      643 DC      0.0000
    932 C4'        1.1206     7.1603  2100.0602 C.3      643 DC      0.0000
    933 O4'        1.5484     5.8408  2099.8149 O.3      643 DC      0.0000
    934 C3'        0.7370     7.7355  2098.6957 C.3      643 DC      0.0000
    935 O3'        1.8121     8.3553  2097.9864 O.3      643 DC      0.0000
    936 C2'        0.1683     6.4858  2098.0096 C.3      643 DC      0.0000
    937 C1'        1.0626     5.3747  2098.5562 C.3      643 DC      0.0000
    938 N1         0.2432     4.1457  2098.6740 N.am     643 DC      0.0000
    939 C2         0.9242     2.9293  2098.6912 C.2      643 DC      0.0000
    940 O2         2.1602     2.8864  2098.6226 O.2      643 DC      0.0000
    941 N3         0.1710     1.7912  2098.7945 N.2      643 DC      0.0000
    942 C4        -1.1854     1.8266  2098.8652 C.2      643 DC      0.0000
    943 N4        -1.8761     0.6889  2098.9672 N.pl3    643 DC      0.0000
    944 C5        -1.8557     3.0814  2098.8401 C.2      643 DC      0.0000
    945 C6        -1.1150     4.1990  2098.7465 C.2      643 DC      0.0000
    946 H5'        0.1863     8.0983  2101.7466 H        643 DC      0.0000
    947 H5''       0.0554     6.3174  2101.7146 H        643 DC      0.0000
    948 H4'        1.9776     7.7240  2100.4289 H        643 DC      0.0000
    949 H3'       -0.0644     8.4619  2098.8299 H        643 DC      0.0000
    950 H2'        0.2502     6.5600  2096.9252 H        643 DC      0.0000
    951 H2''      -0.8682     6.3242  2098.3056 H        643 DC      0.0000
    952 H1'        1.8972     5.2013  2097.8768 H        643 DC      0.0000
    953 H5        -2.9330     3.1345  2098.8949 H        643 DC      0.0000
    954 H6        -1.6079     5.1598  2098.7284 H        643 DC      0.0000
    955 H41       -1.3906    -0.1965  2098.9878 H        643 DC      0.0000
    956 H42       -2.8843     0.7135  2099.0235 H        643 DC      0.0000
    957 P          2.0423     8.3144  2096.3544 P.3      642 DA      0.0000
    958 OP1        2.8935     9.5037  2095.9650 O.co2    642 DA      0.0000
    959 OP2        0.6676     8.3167  2095.7844 O.co2    642 DA      0.0000
    960 O5'        2.9256     6.9950  2096.1889 O.3      642 DA      0.0000
    961 C5'        4.3303     7.0401  2096.6543 C.3      642 DA      0.0000
    962 C4'        4.9814     5.9844  2095.7771 C.3      642 DA      0.0000
    963 O4'        4.3953     4.7040  2096.0444 O.3      642 DA      0.0000
    964 C3'        4.7487     6.2111  2094.2727 C.3      642 DA      0.0000
    965 O3'        5.6552     5.4572  2093.4836 O.3      642 DA      0.0000
    966 C2'        3.3818     5.5273  2094.0852 C.3      642 DA      0.0000
    967 C1'        3.7791     4.2292  2094.8398 C.3      642 DA      0.0000
    968 N9         2.5270     3.4938  2094.9853 N.ar     642 DA      0.0000
    969 C8         1.2632     4.0355  2095.0581 C.ar     642 DA      0.0000
    970 N7         0.3182     3.1363  2095.1728 N.ar     642 DA      0.0000
    971 C5         1.0204     1.9178  2095.1664 C.ar     642 DA      0.0000
    972 C6         0.5598     0.5762  2095.2663 C.ar     642 DA      0.0000
    973 N6        -0.7275     0.2396  2095.3892 N.pl3    642 DA      0.0000
    974 N1         1.5470    -0.3620  2095.2312 N.ar     642 DA      0.0000
    975 C2         2.8535    -0.0209  2095.1123 C.ar     642 DA      0.0000
    976 N3         3.3546     1.2144  2095.0208 N.ar     642 DA      0.0000
    977 C4         2.3716     2.1312  2095.0484 C.ar     642 DA      0.0000
    978 H5'        4.7723     8.0223  2096.4876 H        642 DA      0.0000
    979 H5''       4.3967     6.7613  2097.7060 H        642 DA      0.0000
    980 H4'        6.0515     5.9475  2095.9810 H        642 DA      0.0000
    981 H3'        4.7323     7.2671  2094.0030 H        642 DA      0.0000
    982 H2'        2.5664     6.0669  2094.5668 H        642 DA      0.0000
    983 H2''       3.1700     5.3328  2093.0338 H        642 DA      0.0000
    984 H1'        4.4919     3.6516  2094.2514 H        642 DA      0.0000
    985 H8         1.0703     5.0976  2095.0241 H        642 DA      0.0000
    986 H2         3.5645    -0.8334  2095.0891 H        642 DA      0.0000
    987 H61       -1.4371     0.9578  2095.4139 H        642 DA      0.0000
    988 H62       -0.9908    -0.7331  2095.4573 H        642 DA      0.0000
    989 P          6.5121     6.1540  2092.3427 P.3      641 DC      0.0000
    990 OP1        7.6888     6.7162  2093.1230 O.co2    641 DC      0.0000
    991 OP2        5.7584     7.1827  2091.6171 O.co2    641 DC      0.0000
    992 O5'        6.8206     4.8668  2091.3668 O.3      641 DC      0.0000
    993 C5'        7.4013     3.6828  2092.0358 C.3      641 DC      0.0000
    994 C4'        6.8357     2.4446  2091.3918 C.3      641 DC      0.0000
    995 O4'        5.6637     1.9511  2092.0289 O.3      641 DC      0.0000
    996 C3'        6.4642     2.6550  2089.9140 C.3      641 DC      0.0000
    997 O3'        6.6472     1.5015  2089.1027 O.3      641 DC      0.0000
    998 C2'        4.9328     2.9253  2090.0796 C.3      641 DC      0.0000
    999 C1'        4.7254     1.6487  2090.9752 C.3      641 DC      0.0000
   1000 N1         3.3108     1.5271  2091.2131 N.am     641 DC      0.0000
   1001 C2         2.7993     0.2792  2091.5303 C.2      641 DC      0.0000
   1002 O2         3.3833    -0.8013  2091.6707 O.2      641 DC      0.0000
   1003 N3         1.4509     0.1701  2091.7285 N.2      641 DC      0.0000
   1004 C4         0.6123     1.2443  2091.6125 C.2      641 DC      0.0000
   1005 N4        -0.7035     1.0911  2091.8286 N.pl3    641 DC      0.0000
   1006 C5         1.1517     2.5184  2091.2829 C.2      641 DC      0.0000
   1007 C6         2.4735     2.5997  2091.0912 C.2      641 DC      0.0000
   1008 H5'        8.4856     3.6925  2091.9244 H        641 DC      0.0000
   1009 H5''       7.1418     3.6962  2093.0944 H        641 DC      0.0000
   1010 H4'        7.5962     1.6651  2091.4385 H        641 DC      0.0000
   1011 H3'        6.9772     3.5207  2089.4950 H        641 DC      0.0000
   1012 H2'        4.7105     3.8587  2090.5967 H        641 DC      0.0000
   1013 H2''       4.4007     2.8483  2089.1314 H        641 DC      0.0000
   1014 H1'        5.0721     0.7706  2090.4303 H        641 DC      0.0000
   1015 H5         0.5179     3.3880  2091.1907 H        641 DC      0.0000
   1016 H6         2.8979     3.5573  2090.8279 H        641 DC      0.0000
   1017 H41       -1.0734     0.1826  2092.0691 H        641 DC      0.0000
   1018 H42       -1.3239     1.8844  2091.7506 H        641 DC      0.0000
   1019 P         -6.9532    -7.2135  2125.7019 P.3      651 DG      0.0000
   1020 OP1       -8.3671    -7.6636  2125.7003 O.co2    651 DG      0.0000
   1021 OP2       -6.8427    -6.1037  2126.7575 O.co2    651 DG      0.0000
   1022 O5'       -5.8413    -8.3375  2125.8802 O.3      651 DG      0.0000
   1023 C5'       -4.9986    -8.9484  2124.8802 C.3      651 DG      0.0000
   1024 C4'       -3.5692    -8.9068  2125.3791 C.3      651 DG      0.0000
   1025 O4'       -2.8946    -7.7403  2124.9599 O.3      651 DG      0.0000
   1026 C3'       -3.3355    -9.0291  2126.8712 C.3      651 DG      0.0000
   1027 O3'       -2.4100   -10.1051  2127.1832 O.3      651 DG      0.0000
   1028 C2'       -2.8310    -7.6622  2127.2931 C.3      651 DG      0.0000
   1029 C1'       -2.1953    -7.1162  2126.0375 C.3      651 DG      0.0000
   1030 N9        -2.3145    -5.6472  2126.0084 N.ar     651 DG      0.0000
   1031 C8        -3.4160    -4.8569  2126.2373 C.ar     651 DG      0.0000
   1032 N7        -3.1794    -3.5675  2126.1476 N.ar     651 DG      0.0000
   1033 C5        -1.8252    -3.5007  2125.8306 C.ar     651 DG      0.0000
   1034 C6        -0.9620    -2.4002  2125.6047 C.2      651 DG      0.0000
   1035 O6        -1.2355    -1.1998  2125.6260 O.2      651 DG      0.0000
   1036 N1         0.3363    -2.7267  2125.3232 N.am     651 DG      0.0000
   1037 C2         0.7600    -3.9486  2125.2625 C.2      651 DG      0.0000
   1038 N2         2.0010    -3.9762  2124.9657 N.pl3    651 DG      0.0000
   1039 N3        -0.0108    -5.0968  2125.4713 N.2      651 DG      0.0000
   1040 C4        -1.2819    -4.7688  2125.7438 C.ar     651 DG      0.0000
   1041 H5'       -5.3042    -9.9826  2124.7215 H        651 DG      0.0000
   1042 H5''      -5.0775    -8.3943  2123.9449 H        651 DG      0.0000
   1043 H4'       -3.0538    -9.7473  2124.9143 H        651 DG      0.0000
   1044 H3'       -4.2872    -9.2246  2127.3652 H        651 DG      0.0000
   1045 H2'       -3.6544    -7.0274  2127.6201 H        651 DG      0.0000
   1046 H2''      -2.0878    -7.7587  2128.0846 H        651 DG      0.0000
   1047 H1'       -1.1433    -7.3998  2126.0055 H        651 DG      0.0000
   1048 H8        -4.3903    -5.2605  2126.4704 H        651 DG      0.0000
   1049 H1         0.9950    -1.9798  2125.1548 H        651 DG      0.0000
   1050 H21        2.5051    -3.1130  2124.8214 H        651 DG      0.0000
   1051 H22        2.4791    -4.8613  2124.8753 H        651 DG      0.0000
   1052 P         -1.7625   -10.2856  2128.6118 P.3      652 DT      0.0000
   1053 OP1       -1.6566   -11.6989  2129.1235 O.co2    652 DT      0.0000
   1054 OP2       -2.7992    -9.6136  2129.5305 O.co2    652 DT      0.0000
   1055 O5'       -0.4491    -9.4629  2128.6404 O.3      652 DT      0.0000
   1056 C5'        0.8676   -10.0631  2128.4964 C.3      652 DT      0.0000
   1057 C4'        1.8284    -8.8939  2128.5539 C.3      652 DT      0.0000
   1058 O4'        1.1908    -7.6660  2128.2787 O.3      652 DT      0.0000
   1059 C3'        2.5359    -8.6714  2129.8666 C.3      652 DT      0.0000
   1060 O3'        3.9413    -8.8935  2129.6784 O.3      652 DT      0.0000
   1061 C2'        2.2436    -7.2233  2130.2588 C.3      652 DT      0.0000
   1062 C1'        1.9809    -6.6142  2128.9061 C.3      652 DT      0.0000
   1063 N1         1.1304    -5.4277  2129.0027 N.am     652 DT      0.0000
   1064 C2         1.7226    -4.2099  2128.8048 C.2      652 DT      0.0000
   1065 O2         2.9222    -4.0904  2128.5666 O.2      652 DT      0.0000
   1066 N3         0.9184    -3.1051  2128.8859 N.am     652 DT      0.0000
   1067 C4        -0.4074    -3.1782  2129.1418 C.2      652 DT      0.0000
   1068 O4        -1.0159    -2.0771  2129.1870 O.2      652 DT      0.0000
   1069 C5        -1.0102    -4.4616  2129.3415 C.2      652 DT      0.0000
   1070 C7        -2.4726    -4.5862  2129.6214 C.3      652 DT      0.0000
   1071 C6        -0.2160    -5.5368  2129.2600 C.2      652 DT      0.0000
   1072 H5'        1.0628   -10.7619  2129.3098 H        652 DT      0.0000
   1073 H5''       0.9479   -10.5708  2127.5352 H        652 DT      0.0000
   1074 H4'        2.5891    -9.0515  2127.7893 H        652 DT      0.0000
   1075 H3'        2.1461    -9.3517  2130.6237 H        652 DT      0.0000
   1076 H2'        1.3706    -7.1516  2130.9076 H        652 DT      0.0000
   1077 H2''       3.1142    -6.7652  2130.7281 H        652 DT      0.0000
   1078 H1'        2.9032    -6.4141  2128.3608 H        652 DT      0.0000
   1079 H3         1.3338    -2.1948  2128.7484 H        652 DT      0.0000
   1080 H6        -0.6454    -6.5178  2129.4003 H        652 DT      0.0000
   1081 H71       -2.9908    -4.9018  2128.7158 H        652 DT      0.0000
   1082 H72       -2.8635    -3.6220  2129.9461 H        652 DT      0.0000
   1083 H73       -2.6305    -5.3255  2130.4067 H        652 DT      0.0000
   1084 P          4.6504    -9.6041  2130.9583 P.3      653 DG      0.0000
   1085 OP1        5.6543   -10.4994  2130.2433 O.co2    653 DG      0.0000
   1086 OP2        3.6432   -10.3293  2131.7119 O.co2    653 DG      0.0000
   1087 O5'        5.2966    -8.2347  2131.5679 O.3      653 DG      0.0000
   1088 C5'        5.9309    -7.4655  2130.4773 C.3      653 DG      0.0000
   1089 C4'        6.2120    -6.0866  2130.9973 C.3      653 DG      0.0000
   1090 O4'        5.2015    -5.1308  2130.8167 O.3      653 DG      0.0000
   1091 C3'        6.5631    -6.0828  2132.5053 C.3      653 DG      0.0000
   1092 O3'        7.8354    -5.4096  2132.6642 O.3      653 DG      0.0000
   1093 C2'        5.3667    -5.4237  2133.1579 C.3      653 DG      0.0000
   1094 C1'        4.9226    -4.4458  2132.0764 C.3      653 DG      0.0000
   1095 N9         3.5160    -4.0646  2132.2459 N.ar     653 DG      0.0000
   1096 C8         2.4504    -4.8532  2132.5821 C.ar     653 DG      0.0000
   1097 N7         1.3030    -4.2168  2132.6679 N.ar     653 DG      0.0000
   1098 C5         1.6470    -2.9079  2132.3378 C.ar     653 DG      0.0000
   1099 C6         0.8503    -1.7311  2132.2435 C.2      653 DG      0.0000
   1100 O6        -0.3691    -1.6140  2132.4358 O.2      653 DG      0.0000
   1101 N1         1.5513    -0.5952  2131.9084 N.am     653 DG      0.0000
   1102 C2         2.8942    -0.6170  2131.6847 C.2      653 DG      0.0000
   1103 N2         3.4087     0.5805  2131.3759 N.pl3    653 DG      0.0000
   1104 N3         3.6799    -1.6891  2131.7557 N.2      653 DG      0.0000
   1105 C4         2.9971    -2.7998  2132.0823 C.ar     653 DG      0.0000
   1106 H5'        6.8620    -7.9461  2130.1768 H        653 DG      0.0000
   1107 H5''       5.2541    -7.4073  2129.6249 H        653 DG      0.0000
   1108 H4'        7.0914    -5.7214  2130.4667 H        653 DG      0.0000
   1109 H3'        6.6496    -7.1098  2132.8601 H        653 DG      0.0000
   1110 H2'        4.5857    -6.1505  2133.3809 H        653 DG      0.0000
   1111 H2''       5.6654    -4.8902  2134.0603 H        653 DG      0.0000
   1112 H1'        5.5406    -3.5499  2132.1353 H        653 DG      0.0000
   1113 H8         2.5438    -5.9140  2132.7627 H        653 DG      0.0000
   1114 H1         1.0549     0.2805  2131.8261 H        653 DG      0.0000
   1115 H21        2.8077     1.3907  2131.3256 H        653 DG      0.0000
   1116 H22        4.3978     0.6733  2131.1932 H        653 DG      0.0000
   1117 P          8.5488    -5.3253  2134.0526 P.3      654 DA      0.0000
   1118 OP1        9.4683    -6.4485  2134.4080 O.co2    654 DA      0.0000
   1119 OP2        7.2634    -5.4635  2134.9484 O.co2    654 DA      0.0000
   1120 O5'        9.0291    -3.8347  2134.3017 O.3      654 DA      0.0000
   1121 C5'        9.2753    -2.8650  2133.2727 C.3      654 DA      0.0000
   1122 C4'        8.5891    -1.5942  2133.7470 C.3      654 DA      0.0000
   1123 O4'        7.1869    -1.7295  2133.6566 O.3      654 DA      0.0000
   1124 C3'        8.9012    -1.1498  2135.1761 C.3      654 DA      0.0000
   1125 O3'        9.2135     0.2576  2135.2284 O.3      654 DA      0.0000
   1126 C2'        7.6027    -1.5030  2135.9115 C.3      654 DA      0.0000
   1127 C1'        6.6011    -1.1162  2134.8339 C.3      654 DA      0.0000
   1128 N9         5.2529    -1.6458  2135.0623 N.ar     654 DA      0.0000
   1129 C8         4.8387    -2.9295  2135.2781 C.ar     654 DA      0.0000
   1130 N7         3.5402    -3.0497  2135.4431 N.ar     654 DA      0.0000
   1131 C5         3.0658    -1.7541  2135.3029 C.ar     654 DA      0.0000
   1132 C6         1.7569    -1.2266  2135.3508 C.ar     654 DA      0.0000
   1133 N6         0.6580    -1.9523  2135.5706 N.pl3    654 DA      0.0000
   1134 N1         1.6656     0.1233  2135.1610 N.ar     654 DA      0.0000
   1135 C2         2.7672     0.8782  2134.9433 C.ar     654 DA      0.0000
   1136 N3         4.0282     0.4514  2134.8850 N.ar     654 DA      0.0000
   1137 C4         4.0991    -0.8791  2135.0719 C.ar     654 DA      0.0000
   1138 H5'        8.8505    -3.1975  2132.3255 H        654 DA      0.0000
   1139 H5''      10.3466    -2.6955  2133.1649 H        654 DA      0.0000
   1140 H4'        8.8873    -0.7876  2133.0772 H        654 DA      0.0000
   1141 H3'        9.7300    -1.7330  2135.5775 H        654 DA      0.0000
   1142 H2'        7.5484    -2.5636  2136.1570 H        654 DA      0.0000
   1143 H2''       7.4771    -0.8877  2136.8024 H        654 DA      0.0000
   1144 H1'        6.5678    -0.0327  2134.7194 H        654 DA      0.0000
   1145 H8         5.5167    -3.7695  2135.3102 H        654 DA      0.0000
   1146 H2         2.6079     1.9370  2134.8019 H        654 DA      0.0000
   1147 H61        0.5981    -2.9559  2135.4732 H        654 DA      0.0000
   1148 H62       -0.2408    -1.5249  2135.3991 H        654 DA      0.0000
   1149 P         10.2077     0.8955  2136.3698 P.3      655 DA      0.0000
   1150 OP1       11.4103     1.5154  2135.7027 O.co2    655 DA      0.0000
   1151 OP2       10.4871    -0.2934  2137.2007 O.co2    655 DA      0.0000
   1152 O5'        9.3665     2.1427  2136.9006 O.3      655 DA      0.0000
   1153 C5'        8.9766     3.2398  2136.0763 C.3      655 DA      0.0000
   1154 C4'        7.6554     3.7764  2136.5986 C.3      655 DA      0.0000
   1155 O4'        6.6768     2.7761  2136.6268 O.3      655 DA      0.0000
   1156 C3'        7.6600     4.4378  2137.9659 C.3      655 DA      0.0000
   1157 O3'        7.3114     5.8199  2137.8881 O.3      655 DA      0.0000
   1158 C2'        6.7046     3.5702  2138.7947 C.3      655 DA      0.0000
   1159 C1'        5.8153     2.9300  2137.8009 C.3      655 DA      0.0000
   1160 N9         5.2290     1.6043  2138.0689 N.ar     655 DA      0.0000
   1161 C8         5.8356     0.3770  2138.1841 C.ar     655 DA      0.0000
   1162 N7         5.0007    -0.6207  2138.3534 N.ar     655 DA      0.0000
   1163 C5         3.7487    -0.0152  2138.3164 C.ar     655 DA      0.0000
   1164 C6         2.4339    -0.5488  2138.4368 C.ar     655 DA      0.0000
   1165 N6         2.1364    -1.8279  2138.6285 N.pl3    655 DA      0.0000
   1166 N1         1.4128     0.3629  2138.3387 N.ar     655 DA      0.0000
   1167 C2         1.6799     1.6878  2138.1496 C.ar     655 DA      0.0000
   1168 N3         2.8782     2.2504  2138.0417 N.ar     655 DA      0.0000
   1169 C4         3.8709     1.3428  2138.1336 C.ar     655 DA      0.0000
   1170 H5'        8.8573     2.9038  2135.0463 H        655 DA      0.0000
   1171 H5''       9.7347     4.0217  2136.1223 H        655 DA      0.0000
   1172 H4'        7.3169     4.5284  2135.8859 H        655 DA      0.0000
   1173 H3'        8.6610     4.3548  2138.3891 H        655 DA      0.0000
   1174 H2'        7.2588     2.8171  2139.3549 H        655 DA      0.0000
   1175 H2''       6.1234     4.1934  2139.4742 H        655 DA      0.0000
   1176 H1'        5.0111     3.6235  2137.5548 H        655 DA      0.0000
   1177 H8         6.9066     0.2450  2138.1392 H        655 DA      0.0000
   1178 H2         0.8278     2.3478  2138.0804 H        655 DA      0.0000
   1179 H61        2.8191    -2.4970  2138.9547 H        655 DA      0.0000
   1180 H62        1.1951    -2.1430  2138.4417 H        655 DA      0.0000
   1181 P          7.8970     6.9976  2138.8443 P.3      656 DT      0.0000
   1182 OP1        8.2215     8.2558  2138.0470 O.co2    656 DT      0.0000
   1183 OP2        8.9806     6.4989  2139.6649 O.co2    656 DT      0.0000
   1184 O5'        6.5456     7.4634  2139.6580 O.3      656 DT      0.0000
   1185 C5'        5.3919     7.4839  2138.7129 C.3      656 DT      0.0000
   1186 C4'        4.2538     6.8863  2139.5006 C.3      656 DT      0.0000
   1187 O4'        4.3674     5.4941  2139.6926 O.3      656 DT      0.0000
   1188 C3'        4.1509     7.4813  2140.9172 C.3      656 DT      0.0000
   1189 O3'        3.1652     8.4973  2140.9189 O.3      656 DT      0.0000
   1190 C2'        3.8417     6.2854  2141.8145 C.3      656 DT      0.0000
   1191 C1'        3.4587     5.2352  2140.8499 C.3      656 DT      0.0000
   1192 N1         3.6071     3.8290  2141.1896 N.am     656 DT      0.0000
   1193 C2         2.4370     3.0889  2141.3276 C.2      656 DT      0.0000
   1194 O2         1.3504     3.6461  2141.2395 O.2      656 DT      0.0000
   1195 N3         2.5448     1.7549  2141.5816 N.am     656 DT      0.0000
   1196 C4         3.7488     1.1219  2141.7017 C.2      656 DT      0.0000
   1197 O4         3.7661    -0.1245  2141.9569 O.2      656 DT      0.0000
   1198 C5         4.9406     1.9003  2141.5301 C.2      656 DT      0.0000
   1199 C7         6.2922     1.2474  2141.6176 C.3      656 DT      0.0000
   1200 C6         4.8286     3.2152  2141.2744 C.2      656 DT      0.0000
   1201 H5'        5.1583     8.5050  2138.4113 H        656 DT      0.0000
   1202 H5''       5.6090     6.8713  2137.8379 H        656 DT      0.0000
   1203 H4'        3.3225     7.0883  2138.9715 H        656 DT      0.0000
   1204 H3'        5.1125     7.9086  2141.2016 H        656 DT      0.0000
   1205 H2'        4.7199     5.9889  2142.3879 H        656 DT      0.0000
   1206 H2''       3.0098     6.5133  2142.4809 H        656 DT      0.0000
   1207 H1'        2.4308     5.4109  2140.5325 H        656 DT      0.0000
   1208 H3         1.6996     1.2118  2141.6853 H        656 DT      0.0000
   1209 H6         5.7240     3.8022  2141.1322 H        656 DT      0.0000
   1210 H71        6.1702     0.1855  2141.8307 H        656 DT      0.0000
   1211 H72        6.8165     1.3697  2140.6699 H        656 DT      0.0000
   1212 H73        6.8701     1.7140  2142.4154 H        656 DT      0.0000
   1213 P          2.8308     9.5332  2142.0255 P.3      657 DT      0.0000
   1214 OP1        2.1161    10.7657  2141.4134 O.co2    657 DT      0.0000
   1215 OP2        4.1247     9.9024  2142.6555 O.co2    657 DT      0.0000
   1216 O5'        1.6940     8.8254  2142.9078 O.3      657 DT      0.0000
   1217 C5'        0.4328     8.7095  2142.1961 C.3      657 DT      0.0000
   1218 C4'       -0.4042     7.6798  2142.8722 C.3      657 DT      0.0000
   1219 O4'        0.1604     6.3747  2142.8489 O.3      657 DT      0.0000
   1220 C3'       -0.7335     7.9932  2144.3389 C.3      657 DT      0.0000
   1221 O3'       -2.0965     7.7199  2144.6029 O.3      657 DT      0.0000
   1222 C2'        0.1587     6.9657  2145.0752 C.3      657 DT      0.0000
   1223 C1'       -0.1158     5.7809  2144.1716 C.3      657 DT      0.0000
   1224 N1         0.7796     4.6783  2144.4693 N.am     657 DT      0.0000
   1225 C2         0.2550     3.3972  2144.5242 C.2      657 DT      0.0000
   1226 O2        -0.9521     3.2387  2144.3357 O.2      657 DT      0.0000
   1227 N3         1.1056     2.3613  2144.7901 N.am     657 DT      0.0000
   1228 C4         2.4374     2.5509  2144.9971 C.2      657 DT      0.0000
   1229 O4         3.1660     1.5421  2145.2204 O.2      657 DT      0.0000
   1230 C5         2.9669     3.8727  2144.9320 C.2      657 DT      0.0000
   1231 C7         4.4246     4.1623  2145.1419 C.3      657 DT      0.0000
   1232 C6         2.1173     4.8784  2144.6709 C.2      657 DT      0.0000
   1233 H5'       -0.0848     9.6687  2142.2085 H        657 DT      0.0000
   1234 H5''       0.6208     8.4087  2141.1654 H        657 DT      0.0000
   1235 H4'       -1.3506     7.6304  2142.3338 H        657 DT      0.0000
   1236 H3'       -0.4695     9.0177  2144.6013 H        657 DT      0.0000
   1237 H2'        1.2100     7.2533  2145.0740 H        657 DT      0.0000
   1238 H2''      -0.2007     6.7831  2146.0879 H        657 DT      0.0000
   1239 H1'       -1.1570     5.4674  2144.2473 H        657 DT      0.0000
   1240 H3         0.7334     1.4234  2144.8345 H        657 DT      0.0000
   1241 H6         2.5052     5.8849  2144.6178 H        657 DT      0.0000
   1242 H71        4.9555     3.2314  2145.3409 H        657 DT      0.0000
   1243 H72        4.8344     4.6299  2144.2466 H        657 DT      0.0000
   1244 H73        4.5426     4.8363  2145.9903 H        657 DT      0.0000
   1245 P         -3.3135     8.5023  2145.2109 P.3      658 DC      0.0000
   1246 OP1       -4.3274     8.8652  2144.1429 O.co2    658 DC      0.0000
   1247 OP2       -2.7211     9.6348  2145.9458 O.co2    658 DC      0.0000
   1248 O5'       -3.9433     7.2449  2146.0369 O.3      658 DC      0.0000
   1249 C5'       -4.0692     6.1892  2145.0146 C.3      658 DC      0.0000
   1250 C4'       -4.5799     4.9601  2145.7111 C.3      658 DC      0.0000
   1251 O4'       -3.5748     4.0263  2145.9580 O.3      658 DC      0.0000
   1252 C3'       -5.3473     5.2198  2147.0026 C.3      658 DC      0.0000
   1253 O3'       -6.6507     4.6582  2146.9229 O.3      658 DC      0.0000
   1254 C2'       -4.3818     4.6636  2148.0514 C.3      658 DC      0.0000
   1255 C1'       -3.6501     3.5854  2147.3549 C.3      658 DC      0.0000
   1256 N1        -2.2317     3.4184  2147.6870 N.am     658 DC      0.0000
   1257 C2        -1.8163     2.1135  2147.9428 C.2      658 DC      0.0000
   1258 O2        -2.6168     1.1733  2147.9473 O.2      658 DC      0.0000
   1259 N3        -0.4855     1.9155  2148.2167 N.2      658 DC      0.0000
   1260 C4         0.4050     2.9486  2148.2068 C.2      658 DC      0.0000
   1261 N4         1.6709     2.6558  2148.4836 N.pl3    658 DC      0.0000
   1262 C5        -0.0278     4.2639  2147.9287 C.2      658 DC      0.0000
   1263 C6        -1.3384     4.4422  2147.6640 C.2      658 DC      0.0000
   1264 H5'       -4.7716     6.4997  2144.2410 H        658 DC      0.0000
   1265 H5''      -3.0950     5.9855  2144.5704 H        658 DC      0.0000
   1266 H4'       -5.2813     4.4852  2145.0252 H        658 DC      0.0000
   1267 H3'       -5.4379     6.2965  2147.1459 H        658 DC      0.0000
   1268 H2'       -3.6937     5.4385  2148.3893 H        658 DC      0.0000
   1269 H2''      -4.9368     4.2573  2148.8969 H        658 DC      0.0000
   1270 H1'       -4.1830     2.6380  2147.4359 H        658 DC      0.0000
   1271 H5         0.6630     5.0940  2147.9282 H        658 DC      0.0000
   1272 H6        -1.6906     5.4348  2147.4249 H        658 DC      0.0000
   1273 H41        1.9367     1.7020  2148.6828 H        658 DC      0.0000
   1274 H42        2.3675     3.3871  2148.4949 H        658 DC      0.0000
   1275 P         -7.9137     5.0213  2147.8750 P.3      659 DA      0.0000
   1276 OP1       -9.1694     4.7157  2147.0812 O.co2    659 DA      0.0000
   1277 OP2       -7.8215     6.4545  2148.2205 O.co2    659 DA      0.0000
   1278 O5'       -7.7322     4.0248  2149.1720 O.3      659 DA      0.0000
   1279 C5'       -7.5727     2.6034  2148.8767 C.3      659 DA      0.0000
   1280 C4'       -7.3187     1.8350  2150.1320 C.3      659 DA      0.0000
   1281 O4'       -5.9480     1.5037  2150.3742 O.3      659 DA      0.0000
   1282 C3'       -7.7163     2.5443  2151.4372 C.3      659 DA      0.0000
   1283 O3'       -7.8491     1.5621  2152.4672 O.3      659 DA      0.0000
   1284 C2'       -6.4513     3.3991  2151.6518 C.3      659 DA      0.0000
   1285 C1'       -5.4397     2.2628  2151.4686 C.3      659 DA      0.0000
   1286 N9        -4.1023     2.8232  2151.3742 N.ar     659 DA      0.0000
   1287 C8        -3.6866     4.1207  2151.2584 C.ar     659 DA      0.0000
   1288 N7        -2.3763     4.2872  2151.2398 N.ar     659 DA      0.0000
   1289 C5        -1.8914     2.9913  2151.3474 C.ar     659 DA      0.0000
   1290 C6        -0.5743     2.4706  2151.3819 C.ar     659 DA      0.0000
   1291 N6         0.5226     3.2015  2151.2966 N.pl3    659 DA      0.0000
   1292 N1        -0.4666     1.1158  2151.5144 N.ar     659 DA      0.0000
   1293 C2        -1.5779     0.3194  2151.5946 C.ar     659 DA      0.0000
   1294 N3        -2.8426     0.7328  2151.5648 N.ar     659 DA      0.0000
   1295 C4        -2.9306     2.0800  2151.4418 C.ar     659 DA      0.0000
   1296 H5'       -8.4821     2.2305  2148.4056 H        659 DA      0.0000
   1297 H5''      -6.7325     2.4688  2148.1954 H        659 DA      0.0000
   1298 H4'       -7.8819     0.9036  2150.0731 H        659 DA      0.0000
   1299 H3'       -8.6143     3.1517  2151.3236 H        659 DA      0.0000
   1300 H2'       -6.3425     4.1818  2150.9011 H        659 DA      0.0000
   1301 H2''      -6.4130     3.8076  2152.6617 H        659 DA      0.0000
   1302 H1'       -5.4774     1.6342  2152.3582 H        659 DA      0.0000
   1303 H8        -4.3777     4.9476  2151.1874 H        659 DA      0.0000
   1304 H2        -1.4124    -0.7434  2151.6911 H        659 DA      0.0000
   1305 H61        1.5008     3.0259  2151.4767 H        659 DA      0.0000
   1306 H62        0.3436     4.1444  2150.9819 H        659 DA      0.0000
   1307 P         -9.1732     0.6746  2152.6076 P.3      660 DC      0.0000
   1308 OP1       -9.9914     0.6391  2151.3625 O.co2    660 DC      0.0000
   1309 OP2       -9.8824     1.3417  2153.7505 O.co2    660 DC      0.0000
   1310 O5'       -8.6086    -0.7799  2152.8908 O.3      660 DC      0.0000
   1311 C5'       -8.1539    -1.6407  2151.8031 C.3      660 DC      0.0000
   1312 C4'       -7.0909    -2.4908  2152.5080 C.3      660 DC      0.0000
   1313 O4'       -6.0119    -1.6405  2152.8200 O.3      660 DC      0.0000
   1314 C3'       -7.5686    -3.1120  2153.8179 C.3      660 DC      0.0000
   1315 O3'       -7.3290    -4.5360  2153.8858 O.3      660 DC      0.0000
   1316 C2'       -6.8215    -2.3180  2154.9001 C.3      660 DC      0.0000
   1317 C1'       -5.5590    -1.9658  2154.2240 C.3      660 DC      0.0000
   1318 N1        -4.8159    -0.7588  2154.5768 N.am     660 DC      0.0000
   1319 C2        -3.4286    -0.8885  2154.5499 C.2      660 DC      0.0000
   1320 O2        -2.8680    -1.9574  2154.3430 O.2      660 DC      0.0000
   1321 N3        -2.6918     0.2264  2154.8030 N.2      660 DC      0.0000
   1322 C4        -3.2578     1.4352  2155.0364 C.2      660 DC      0.0000
   1323 N4        -2.4311     2.4534  2155.2673 N.pl3    660 DC      0.0000
   1324 C5        -4.6745     1.5576  2155.0429 C.2      660 DC      0.0000
   1325 C6        -5.3950     0.4532  2154.7935 C.2      660 DC      0.0000
   1326 H5'       -8.9658    -2.2578  2151.4182 H        660 DC      0.0000
   1327 H5''      -7.7070    -1.0490  2151.0041 H        660 DC      0.0000
   1328 H4'       -6.7504    -3.2780  2151.8354 H        660 DC      0.0000
   1329 H3'       -8.6382    -2.9301  2153.9238 H        660 DC      0.0000
   1330 H2'       -7.3769    -1.4251  2155.1871 H        660 DC      0.0000
   1331 H2''      -6.6280    -2.9451  2155.7704 H        660 DC      0.0000
   1332 H1'       -4.8897    -2.8261  2154.2107 H        660 DC      0.0000
   1333 H5        -5.1533     2.5051  2155.2414 H        660 DC      0.0000
   1334 H6        -6.4719     0.5291  2154.7638 H        660 DC      0.0000
   1335 H41       -1.4321     2.3053  2155.2563 H        660 DC      0.0000
   1336 H42       -2.8032     3.3737  2155.4535 H        660 DC      0.0000
   1337 P          7.8381     3.2574  2156.8454 P.3      660 DG      0.0000
   1338 OP1        9.1823     3.8884  2157.0241 O.co2    660 DG      0.0000
   1339 OP2        7.0046     3.9266  2155.7605 O.co2    660 DG      0.0000
   1340 O5'        8.0203     1.6347  2156.6381 O.3      660 DG      0.0000
   1341 C5'        7.6593     0.7298  2157.7339 C.3      660 DG      0.0000
   1342 C4'        7.0178    -0.5021  2157.0996 C.3      660 DG      0.0000
   1343 O4'        5.6250    -0.3784  2157.0038 O.3      660 DG      0.0000
   1344 C3'        7.5179    -0.8215  2155.6933 C.3      660 DG      0.0000
   1345 O3'        7.6889    -2.2327  2155.4263 O.3      660 DG      0.0000
   1346 C2'        6.4343    -0.2040  2154.7910 C.3      660 DG      0.0000
   1347 C1'        5.1874    -0.4799  2155.6148 C.3      660 DG      0.0000
   1348 N9         4.1397     0.5185  2155.3415 N.ar     660 DG      0.0000
   1349 C8         4.2863     1.8763  2155.1848 C.ar     660 DG      0.0000
   1350 N7         3.1647     2.5098  2154.9664 N.ar     660 DG      0.0000
   1351 C5         2.2073     1.5025  2154.9912 C.ar     660 DG      0.0000
   1352 C6         0.7962     1.5460  2154.8348 C.2      660 DG      0.0000
   1353 O6         0.1042     2.5551  2154.6379 O.2      660 DG      0.0000
   1354 N1         0.1800     0.3220  2154.9217 N.am     660 DG      0.0000
   1355 C2         0.8635    -0.8276  2155.1424 C.2      660 DG      0.0000
   1356 N2         0.1321    -1.9369  2155.2057 N.pl3    660 DG      0.0000
   1357 N3         2.1893    -0.9236  2155.3001 N.2      660 DG      0.0000
   1358 C4         2.7933     0.2777  2155.2168 C.ar     660 DG      0.0000
   1359 H5'        8.5507     0.4427  2158.2917 H        660 DG      0.0000
   1360 H5''       6.9470     1.2181  2158.3988 H        660 DG      0.0000
   1361 H4'        7.2357    -1.3596  2157.7363 H        660 DG      0.0000
   1362 H3'        8.4634    -0.3066  2155.5228 H        660 DG      0.0000
   1363 H2'        6.5924     0.8649  2154.6483 H        660 DG      0.0000
   1364 H2''       6.3876    -0.7204  2153.8322 H        660 DG      0.0000
   1365 H1'        4.8145    -1.4834  2155.4096 H        660 DG      0.0000
   1366 H8         5.2429     2.3748  2155.2376 H        660 DG      0.0000
   1367 H1        -0.8235     0.2764  2154.8169 H        660 DG      0.0000
   1368 H21       -0.8701    -1.8883  2155.0906 H        660 DG      0.0000
   1369 H22        0.5790    -2.8279  2155.3689 H        660 DG      0.0000
   1370 P          7.4748    -2.6812  2153.9028 P.3      659 DT      0.0000
   1371 OP1        8.2675    -3.8993  2153.5119 O.co2    659 DT      0.0000
   1372 OP2        7.9695    -1.4706  2153.2023 O.co2    659 DT      0.0000
   1373 O5'        5.9062    -2.9806  2153.7719 O.3      659 DT      0.0000
   1374 C5'        5.4724    -4.3524  2154.0395 C.3      659 DT      0.0000
   1375 C4'        4.1864    -4.6036  2153.2825 C.3      659 DT      0.0000
   1376 O4'        3.3323    -3.4740  2153.2552 O.3      659 DT      0.0000
   1377 C3'        4.4155    -4.9836  2151.8278 C.3      659 DT      0.0000
   1378 O3'        3.5065    -5.9906  2151.3327 O.3      659 DT      0.0000
   1379 C2'        4.2446    -3.6660  2151.1049 C.3      659 DT      0.0000
   1380 C1'        3.0646    -3.1078  2151.8830 C.3      659 DT      0.0000
   1381 N1         3.1111    -1.6450  2151.7317 N.am     659 DT      0.0000
   1382 C2         1.8955    -0.9771  2151.8385 C.2      659 DT      0.0000
   1383 O2         0.8574    -1.6020  2152.0282 O.2      659 DT      0.0000
   1384 N3         1.9187     0.3843  2151.7183 N.am     659 DT      0.0000
   1385 C4         3.0765     1.0692  2151.5008 C.2      659 DT      0.0000
   1386 O4         2.9982     2.3385  2151.4032 O.2      659 DT      0.0000
   1387 C5         4.3056     0.3578  2151.3944 C.2      659 DT      0.0000
   1388 C7         5.5891     1.1033  2151.1654 C.3      659 DT      0.0000
   1389 C6         4.2770    -0.9718  2151.5161 C.2      659 DT      0.0000
   1390 H5'        6.2385    -5.0523  2153.7058 H        659 DT      0.0000
   1391 H5''       5.2996    -4.4804  2155.1081 H        659 DT      0.0000
   1392 H4'        3.6564    -5.4216  2153.7704 H        659 DT      0.0000
   1393 H3'        5.4409    -5.3320  2151.7038 H        659 DT      0.0000
   1394 H2'        5.1280    -3.0340  2151.1965 H        659 DT      0.0000
   1395 H2''       3.9836    -3.8246  2150.0585 H        659 DT      0.0000
   1396 H1'        2.1184    -3.5201  2151.5324 H        659 DT      0.0000
   1397 H3         1.0521     0.8978  2151.7930 H        659 DT      0.0000
   1398 H6         5.2001    -1.5275  2151.4420 H        659 DT      0.0000
   1399 H71        5.3823     2.1712  2151.0967 H        659 DT      0.0000
   1400 H72        6.2698     0.9179  2151.9963 H        659 DT      0.0000
   1401 H73        6.0473     0.7614  2150.2373 H        659 DT      0.0000
   1402 P          4.4223    -7.1351  2150.5543 P.3      658 DG      0.0000
   1403 OP1        4.7957    -8.2900  2151.4255 O.co2    658 DG      0.0000
   1404 OP2        5.5572    -6.2687  2150.1487 O.co2    658 DG      0.0000
   1405 O5'        3.3701    -7.6637  2149.4735 O.3      658 DG      0.0000
   1406 C5'        2.3387    -8.5910  2149.8969 C.3      658 DG      0.0000
   1407 C4'        1.0312    -7.9499  2149.4492 C.3      658 DG      0.0000
   1408 O4'        1.0651    -6.5629  2149.7199 O.3      658 DG      0.0000
   1409 C3'        0.7230    -8.1191  2147.9615 C.3      658 DG      0.0000
   1410 O3'       -0.5374    -8.7306  2147.7530 O.3      658 DG      0.0000
   1411 C2'        0.8759    -6.7229  2147.3848 C.3      658 DG      0.0000
   1412 C1'        0.5756    -5.8373  2148.5709 C.3      658 DG      0.0000
   1413 N9         1.2591    -4.5470  2148.4473 N.ar     658 DG      0.0000
   1414 C8         2.5945    -4.3064  2148.2885 C.ar     658 DG      0.0000
   1415 N7         2.8956    -3.0331  2148.2104 N.ar     658 DG      0.0000
   1416 C5         1.6705    -2.3869  2148.3479 C.ar     658 DG      0.0000
   1417 C6         1.3214    -1.0107  2148.3574 C.2      658 DG      0.0000
   1418 O6         2.0818    -0.0530  2148.2583 O.2      658 DG      0.0000
   1419 N1        -0.0138    -0.7640  2148.5064 N.am     658 DG      0.0000
   1420 C2        -0.9330    -1.7765  2148.6393 C.2      658 DG      0.0000
   1421 N2        -2.2035    -1.3955  2148.7749 N.pl3    658 DG      0.0000
   1422 N3        -0.6722    -3.0877  2148.6435 N.2      658 DG      0.0000
   1423 C4         0.6547    -3.3166  2148.4928 C.ar     658 DG      0.0000
   1424 H5'        2.4743    -9.5608  2149.4182 H        658 DG      0.0000
   1425 H5''       2.3527    -8.7007  2150.9813 H        658 DG      0.0000
   1426 H4'        0.2166    -8.3927  2150.0222 H        658 DG      0.0000
   1427 H3'        1.4902    -8.7571  2147.5229 H        658 DG      0.0000
   1428 H2'        1.8892    -6.5582  2147.0184 H        658 DG      0.0000
   1429 H2''       0.1497    -6.5560  2146.5892 H        658 DG      0.0000
   1430 H1'       -0.4999    -5.6828  2148.6579 H        658 DG      0.0000
   1431 H8         3.3333    -5.0921  2148.2324 H        658 DG      0.0000
   1432 H1        -0.3356     0.1932  2148.5192 H        658 DG      0.0000
   1433 H21       -2.4389    -0.4133  2148.7759 H        658 DG      0.0000
   1434 H22       -2.9305    -2.0891  2148.8767 H        658 DG      0.0000
   1435 P         -1.8152    -8.3928  2146.8867 P.3      657 DA      0.0000
   1436 OP1       -3.0893    -8.7380  2147.6680 O.co2    657 DA      0.0000
   1437 OP2       -1.7024    -9.2354  2145.6940 O.co2    657 DA      0.0000
   1438 O5'       -1.8311    -6.7731  2146.7119 O.3      657 DA      0.0000
   1439 C5'       -2.4644    -6.1077  2147.8683 C.3      657 DA      0.0000
   1440 C4'       -3.6870    -5.3987  2147.3405 C.3      657 DA      0.0000
   1441 O4'       -3.4607    -4.0299  2147.1182 O.3      657 DA      0.0000
   1442 C3'       -4.1659    -5.9546  2146.0000 C.3      657 DA      0.0000
   1443 O3'       -5.5681    -6.0515  2145.9248 O.3      657 DA      0.0000
   1444 C2'       -3.4665    -5.0477  2145.0034 C.3      657 DA      0.0000
   1445 C1'       -3.1774    -3.7624  2145.7273 C.3      657 DA      0.0000
   1446 N9        -1.7937    -3.3107  2145.5018 N.ar     657 DA      0.0000
   1447 C8        -0.6557    -4.0653  2145.3154 C.ar     657 DA      0.0000
   1448 N7         0.4351    -3.3609  2145.1195 N.ar     657 DA      0.0000
   1449 C5        -0.0137    -2.0490  2145.2064 C.ar     657 DA      0.0000
   1450 C6         0.6721    -0.8165  2145.1007 C.ar     657 DA      0.0000
   1451 N6         1.9723    -0.7142  2144.8883 N.pl3    657 DA      0.0000
   1452 N1        -0.0899     0.3052  2145.2245 N.ar     657 DA      0.0000
   1453 C2        -1.4350     0.2297  2145.4490 C.ar     657 DA      0.0000
   1454 N3        -2.1385    -0.8948  2145.5649 N.ar     657 DA      0.0000
   1455 C4        -1.3704    -2.0027  2145.4288 C.ar     657 DA      0.0000
   1456 H5'       -2.7517    -6.8465  2148.6164 H        657 DA      0.0000
   1457 H5''      -1.7750    -5.3850  2148.3050 H        657 DA      0.0000
   1458 H4'       -4.4917    -5.5044  2148.0682 H        657 DA      0.0000
   1459 H3'       -3.7541    -6.9575  2145.8869 H        657 DA      0.0000
   1460 H2'       -4.1134    -4.8601  2144.1466 H        657 DA      0.0000
   1461 H2''      -2.5347    -5.5065  2144.6729 H        657 DA      0.0000
   1462 H1'       -3.8623    -2.9939  2145.3691 H        657 DA      0.0000
   1463 H8        -0.6606    -5.1452  2145.3293 H        657 DA      0.0000
   1464 H2        -1.9738     1.1612  2145.5402 H        657 DA      0.0000
   1465 H61        2.4913     0.0929  2145.2037 H        657 DA      0.0000
   1466 H62        2.4555    -1.4559  2144.4020 H        657 DA      0.0000
   1467 P         -6.5742    -5.7664  2144.7402 P.3      656 DA      0.0000
   1468 OP1       -8.0415    -5.7654  2145.2601 O.co2    656 DA      0.0000
   1469 OP2       -6.3902    -6.9210  2143.8066 O.co2    656 DA      0.0000
   1470 O5'       -6.3055    -4.2978  2144.2375 O.3      656 DA      0.0000
   1471 C5'       -7.1433    -3.2154  2144.6934 C.3      656 DA      0.0000
   1472 C4'       -6.6669    -1.9624  2143.9914 C.3      656 DA      0.0000
   1473 O4'       -5.2765    -1.8635  2143.8707 O.3      656 DA      0.0000
   1474 C3'       -7.2385    -1.7978  2142.5839 C.3      656 DA      0.0000
   1475 O3'       -8.1127    -0.6538  2142.5525 O.3      656 DA      0.0000
   1476 C2'       -6.0012    -1.7926  2141.6844 C.3      656 DA      0.0000
   1477 C1'       -4.9268    -1.2582  2142.5821 C.3      656 DA      0.0000
   1478 N9        -3.5610    -1.6755  2142.2826 N.ar     656 DA      0.0000
   1479 C8        -3.0588    -2.9455  2142.0878 C.ar     656 DA      0.0000
   1480 N7        -1.7610    -2.9769  2141.8824 N.ar     656 DA      0.0000
   1481 C5        -1.3750    -1.6527  2141.9569 C.ar     656 DA      0.0000
   1482 C6        -0.1145    -1.0285  2141.8234 C.ar     656 DA      0.0000
   1483 N6         1.0153    -1.6858  2141.5802 N.pl3    656 DA      0.0000
   1484 N1        -0.1194     0.3352  2141.9723 N.ar     656 DA      0.0000
   1485 C2        -1.2469     1.0273  2142.2248 C.ar     656 DA      0.0000
   1486 N3        -2.4699     0.5065  2142.3636 N.ar     656 DA      0.0000
   1487 C4        -2.4619    -0.8371  2142.2164 C.ar     656 DA      0.0000
   1488 H5'       -8.1840    -3.4147  2144.4382 H        656 DA      0.0000
   1489 H5''      -7.0421    -3.0972  2145.7722 H        656 DA      0.0000
   1490 H4'       -7.0041    -1.1103  2144.5816 H        656 DA      0.0000
   1491 H3'       -7.8277    -2.6842  2142.3489 H        656 DA      0.0000
   1492 H2'       -5.7611    -2.8000  2141.3445 H        656 DA      0.0000
   1493 H2''      -6.1517    -1.1288  2140.8330 H        656 DA      0.0000
   1494 H1'       -4.9877    -0.1716  2142.6432 H        656 DA      0.0000
   1495 H8        -3.6752    -3.8323  2142.1028 H        656 DA      0.0000
   1496 H2        -1.1546     2.0988  2142.3238 H        656 DA      0.0000
   1497 H61        1.8597    -1.2161  2141.8743 H        656 DA      0.0000
   1498 H62        1.0283    -2.5913  2141.1330 H        656 DA      0.0000
   1499 P         -8.8333    -0.2607  2141.1675 P.3      655 DT      0.0000
   1500 OP1       -9.9655     0.7180  2141.2256 O.co2    655 DT      0.0000
   1501 OP2       -9.1868    -1.6198  2140.6549 O.co2    655 DT      0.0000
   1502 O5'       -7.5550     0.5451  2140.4644 O.3      655 DT      0.0000
   1503 C5'       -6.9033     1.3704  2141.4767 C.3      655 DT      0.0000
   1504 C4'       -6.1506     2.4672  2140.7937 C.3      655 DT      0.0000
   1505 O4'       -4.7950     2.1856  2140.6133 O.3      655 DT      0.0000
   1506 C3'       -6.7095     2.8516  2139.4325 C.3      655 DT      0.0000
   1507 O3'       -6.6253     4.2568  2139.1652 O.3      655 DT      0.0000
   1508 C2'       -5.8332     1.9639  2138.5391 C.3      655 DT      0.0000
   1509 C1'       -4.4720     2.1340  2139.1792 C.3      655 DT      0.0000
   1510 N1        -3.6211     0.9513  2138.9492 N.am     655 DT      0.0000
   1511 C2        -2.2583     1.1583  2138.8276 C.2      655 DT      0.0000
   1512 O2        -1.7806     2.2933  2138.8644 O.2      655 DT      0.0000
   1513 N3        -1.4549     0.0631  2138.6602 N.am     655 DT      0.0000
   1514 C4        -1.9600    -1.1987  2138.6116 C.2      655 DT      0.0000
   1515 O4        -1.1452    -2.1514  2138.4261 O.2      655 DT      0.0000
   1516 C5        -3.3621    -1.3914  2138.7601 C.2      655 DT      0.0000
   1517 C7        -3.9584    -2.7779  2138.7079 C.3      655 DT      0.0000
   1518 C6        -4.1324    -0.3122  2138.9330 C.2      655 DT      0.0000
   1519 H5'       -7.6554     1.7996  2142.1388 H        655 DT      0.0000
   1520 H5''      -6.2120     0.7591  2142.0567 H        655 DT      0.0000
   1521 H4'       -6.2157     3.3493  2141.4308 H        655 DT      0.0000
   1522 H3'       -7.7480     2.5285  2139.3605 H        655 DT      0.0000
   1523 H2'       -6.1594     0.9243  2138.5697 H        655 DT      0.0000
   1524 H2''      -5.8264     2.3357  2137.5145 H        655 DT      0.0000
   1525 H1'       -3.9839     3.0497  2138.8452 H        655 DT      0.0000
   1526 H3        -0.4577     0.1958  2138.5700 H        655 DT      0.0000
   1527 H6        -5.1960    -0.4462  2139.0644 H        655 DT      0.0000
   1528 H71       -4.3302    -2.9765  2137.7028 H        655 DT      0.0000
   1529 H72       -4.7813    -2.8461  2139.4195 H        655 DT      0.0000
   1530 H73       -3.1945    -3.5119  2138.9645 H        655 DT      0.0000
   1531 P         -7.1117     4.7237  2137.6753 P.3      654 DT      0.0000
   1532 OP1       -8.3698     5.5815  2137.8233 O.co2    654 DT      0.0000
   1533 OP2       -7.4609     3.4257  2137.0055 O.co2    654 DT      0.0000
   1534 O5'       -5.9425     5.5050  2137.0232 O.3      654 DT      0.0000
   1535 C5'       -4.9921     6.2601  2137.7746 C.3      654 DT      0.0000
   1536 C4'       -3.6976     6.2611  2137.0266 C.3      654 DT      0.0000
   1537 O4'       -2.9576     5.0716  2136.9697 O.3      654 DT      0.0000
   1538 C3'       -3.7223     6.7451  2135.5606 C.3      654 DT      0.0000
   1539 O3'       -2.4521     7.3955  2135.4568 O.3      654 DT      0.0000
   1540 C2'       -3.7525     5.4146  2134.7968 C.3      654 DT      0.0000
   1541 C1'       -2.6462     4.7294  2135.5726 C.3      654 DT      0.0000
   1542 N1        -2.6008     3.2683  2135.4664 N.am     654 DT      0.0000
   1543 C2        -1.3173     2.7056  2135.4658 C.2      654 DT      0.0000
   1544 O2        -0.3110     3.4164  2135.5088 O.2      654 DT      0.0000
   1545 N3        -1.2363     1.3438  2135.4123 N.am     654 DT      0.0000
   1546 C4        -2.3364     0.5409  2135.3526 C.2      654 DT      0.0000
   1547 O4        -2.1561    -0.7125  2135.2902 O.2      654 DT      0.0000
   1548 C5        -3.6265     1.1380  2135.3608 C.2      654 DT      0.0000
   1549 C7        -4.8574     0.2579  2135.2994 C.3      654 DT      0.0000
   1550 C6        -3.7010     2.4704  2135.4273 C.2      654 DT      0.0000
   1551 H5'       -5.3479     7.2832  2137.8968 H        654 DT      0.0000
   1552 H5''      -4.8502     5.8015  2138.7532 H        654 DT      0.0000
   1553 H4'       -3.0608     6.9715  2137.5539 H        654 DT      0.0000
   1554 H3'       -4.5651     7.3973  2135.3319 H        654 DT      0.0000
   1555 H2'       -3.5085     5.5345  2133.7413 H        654 DT      0.0000
   1556 H2''      -4.7057     4.9027  2134.9284 H        654 DT      0.0000
   1557 H1'       -1.6808     5.1518  2135.2935 H        654 DT      0.0000
   1558 H3        -0.3229     0.9131  2135.4172 H        654 DT      0.0000
   1559 H6        -4.6765     2.9333  2135.4510 H        654 DT      0.0000
   1560 H71       -4.5548    -0.7881  2135.2506 H        654 DT      0.0000
   1561 H72       -5.4396     0.5092  2134.4128 H        654 DT      0.0000
   1562 H73       -5.4643     0.4193  2136.1903 H        654 DT      0.0000
   1563 P         -1.9740     8.3272  2134.3106 P.3      653 DC      0.0000
   1564 OP1       -1.3777     9.5975  2134.9197 O.co2    653 DC      0.0000
   1565 OP2       -3.2022     8.6733  2133.5288 O.co2    653 DC      0.0000
   1566 O5'       -0.8761     7.3775  2133.5712 O.3      653 DC      0.0000
   1567 C5'        0.3872     7.2145  2134.2957 C.3      653 DC      0.0000
   1568 C4'        1.4610     7.0987  2133.2452 C.3      653 DC      0.0000
   1569 O4'        1.8253     5.7603  2132.9999 O.3      653 DC      0.0000
   1570 C3'        1.1053     7.6916  2131.8808 C.3      653 DC      0.0000
   1571 O3'        2.2086     8.2593  2131.1715 O.3      653 DC      0.0000
   1572 C2'        0.4776     6.4704  2131.1946 C.3      653 DC      0.0000
   1573 C1'        1.3178     5.3179  2131.7412 C.3      653 DC      0.0000
   1574 N1         0.4407     4.1294  2131.8590 N.am     653 DC      0.0000
   1575 C2         1.0629     2.8819  2131.8763 C.2      653 DC      0.0000
   1576 O2         2.2955     2.7800  2131.8076 O.2      653 DC      0.0000
   1577 N3         0.2562     1.7810  2131.9795 N.2      653 DC      0.0000
   1578 C4        -1.0969     1.8810  2132.0502 C.2      653 DC      0.0000
   1579 N4        -1.8411     0.7776  2132.1522 N.pl3    653 DC      0.0000
   1580 C5        -1.7066     3.1664  2132.0251 C.2      653 DC      0.0000
   1581 C6        -0.9134     4.2474  2131.9315 C.2      653 DC      0.0000
   1582 H5'        0.5725     8.0802  2134.9317 H        653 DC      0.0000
   1583 H5''       0.3567     6.3076  2134.8996 H        653 DC      0.0000
   1584 H4'        2.3439     7.6208  2133.6140 H        653 DC      0.0000
   1585 H3'        0.3394     8.4553  2132.0149 H        653 DC      0.0000
   1586 H2'        0.5629     6.5406  2130.1103 H        653 DC      0.0000
   1587 H2''      -0.5655     6.3584  2131.4906 H        653 DC      0.0000
   1588 H1'        2.1432     5.1048  2131.0618 H        653 DC      0.0000
   1589 H5        -2.7801     3.2708  2132.0799 H        653 DC      0.0000
   1590 H6        -1.3599     5.2306  2131.9134 H        653 DC      0.0000
   1591 H41       -1.3984    -0.1300  2132.1729 H        653 DC      0.0000
   1592 H42       -2.8469     0.8503  2132.2086 H        653 DC      0.0000
   1593 P          2.4367     8.2075  2129.5395 P.3      652 DA      0.0000
   1594 OP1        3.3436     9.3548  2129.1500 O.co2    652 DA      0.0000
   1595 OP2        1.0636     8.2753  2128.9694 O.co2    652 DA      0.0000
   1596 O5'        3.2560     6.8474  2129.3739 O.3      652 DA      0.0000
   1597 C5'        4.6612     6.8254  2129.8394 C.3      652 DA      0.0000
   1598 C4'        5.2613     5.7399  2128.9621 C.3      652 DA      0.0000
   1599 O4'        4.6148     4.4889  2129.2294 O.3      652 DA      0.0000
   1600 C3'        5.0396     5.9775  2127.4577 C.3      652 DA      0.0000
   1601 O3'        5.9091     5.1812  2126.6686 O.3      652 DA      0.0000
   1602 C2'        3.6417     5.3597  2127.2702 C.3      652 DA      0.0000
   1603 C1'        3.9765     4.0441  2128.0249 C.3      652 DA      0.0000
   1604 N9         2.6908     3.3692  2128.1703 N.ar     652 DA      0.0000
   1605 C8         1.4543     3.9706  2128.2432 C.ar     652 DA      0.0000
   1606 N7         0.4675     3.1176  2128.3578 N.ar     652 DA      0.0000
   1607 C5         1.1107     1.8669  2128.3514 C.ar     652 DA      0.0000
   1608 C6         0.5866     0.5488  2128.4514 C.ar     652 DA      0.0000
   1609 N6        -0.7152     0.2740  2128.5742 N.pl3    652 DA      0.0000
   1610 N1         1.5279    -0.4354  2128.4162 N.ar     652 DA      0.0000
   1611 C2         2.8493    -0.1570  2128.2973 C.ar     652 DA      0.0000
   1612 N3         3.4087     1.0529  2128.2059 N.ar     652 DA      0.0000
   1613 C4         2.4706     2.0156  2128.2334 C.ar     652 DA      0.0000
   1614 H5'        5.1496     7.7855  2129.6726 H        652 DA      0.0000
   1615 H5''       4.7142     6.5438  2130.8910 H        652 DA      0.0000
   1616 H4'        6.3284     5.6520  2129.1661 H        652 DA      0.0000
   1617 H3'        5.0737     7.0330  2127.1881 H        652 DA      0.0000
   1618 H2'        2.8530     5.9376  2127.7519 H        652 DA      0.0000
   1619 H2''       3.4208     5.1755  2126.2189 H        652 DA      0.0000
   1620 H1'        4.6610     3.4331  2127.4365 H        652 DA      0.0000
   1621 H8         1.3123     5.0408  2128.2091 H        652 DA      0.0000
   1622 H2         3.5207    -1.0025  2128.2741 H        652 DA      0.0000
   1623 H61       -1.3898     1.0253  2128.5989 H        652 DA      0.0000
   1624 H62       -1.0247    -0.6849  2128.6423 H        652 DA      0.0000
   1625 P          6.7983     5.8363  2125.5277 P.3      651 DC      0.0000
   1626 OP1        8.0005     6.3417  2126.3080 O.co2    651 DC      0.0000
   1627 OP2        6.0946     6.8998  2124.8021 O.co2    651 DC      0.0000
   1628 O5'        7.0450     4.5358  2124.5518 O.3      651 DC      0.0000
   1629 C5'        7.5686     3.3255  2125.2209 C.3      651 DC      0.0000
   1630 C4'        6.9446     2.1157  2124.5768 C.3      651 DC      0.0000
   1631 O4'        5.7503     1.6787  2125.2140 O.3      651 DC      0.0000
   1632 C3'        6.5835     2.3436  2123.0990 C.3      651 DC      0.0000
   1633 O3'        6.7112     1.1826  2122.2877 O.3      651 DC      0.0000
   1634 C2'        5.0667     2.6866  2123.2647 C.3      651 DC      0.0000
   1635 C1'        4.7987     1.4213  2124.1603 C.3      651 DC      0.0000
   1636 N1         3.3799     1.3674  2124.3981 N.am     651 DC      0.0000
   1637 C2         2.8095     0.1453  2124.7153 C.2      651 DC      0.0000
   1638 O2         3.3412    -0.9618  2124.8558 O.2      651 DC      0.0000
   1639 N3         1.4573     0.1007  2124.9135 N.2      651 DC      0.0000
   1640 C4         0.6709     1.2137  2124.7975 C.2      651 DC      0.0000
   1641 N4        -0.6507     1.1234  2125.0136 N.pl3    651 DC      0.0000
   1642 C5         1.2706     2.4605  2124.4679 C.2      651 DC      0.0000
   1643 C6         2.5948     2.4787  2124.2762 C.2      651 DC      0.0000
   1644 H5'        8.6521     3.2835  2125.1094 H        651 DC      0.0000
   1645 H5''       7.3100     3.3513  2126.2795 H        651 DC      0.0000
   1646 H4'        7.6670     1.3008  2124.6236 H        651 DC      0.0000
   1647 H3'        7.1372     3.1838  2122.6800 H        651 DC      0.0000
   1648 H2'        4.8892     3.6296  2123.7818 H        651 DC      0.0000
   1649 H2''       4.5316     2.6351  2122.3164 H        651 DC      0.0000
   1650 H1'        5.1031     0.5277  2123.6153 H        651 DC      0.0000
   1651 H5         0.6790     3.3594  2124.3758 H        651 DC      0.0000
   1652 H6         3.0643     3.4150  2124.0129 H        651 DC      0.0000
   1653 H41       -1.0635     0.2336  2125.2541 H        651 DC      0.0000
   1654 H42       -1.2325     1.9454  2124.9357 H        651 DC      0.0000
   1655 P         -7.2895    -6.8735  2158.8869 P.3      661 DG      0.0000
   1656 OP1       -8.7232    -7.2557  2158.8853 O.co2    661 DG      0.0000
   1657 OP2       -7.1261    -5.7703  2159.9426 O.co2    661 DG      0.0000
   1658 O5'       -6.2324    -8.0493  2159.0653 O.3      661 DG      0.0000
   1659 C5'       -5.4198    -8.6997  2158.0653 C.3      661 DG      0.0000
   1660 C4'       -3.9901    -8.7263  2158.5641 C.3      661 DG      0.0000
   1661 O4'       -3.2605    -7.5934  2158.1449 O.3      661 DG      0.0000
   1662 C3'       -3.7624    -8.8597  2160.0563 C.3      661 DG      0.0000
   1663 O3'       -2.8894    -9.9786  2160.3683 O.3      661 DG      0.0000
   1664 C2'       -3.1933    -7.5184  2160.4782 C.3      661 DG      0.0000
   1665 C1'       -2.5323    -7.0034  2159.2225 C.3      661 DG      0.0000
   1666 N9        -2.5813    -5.5303  2159.1935 N.ar     661 DG      0.0000
   1667 C8        -3.6439    -4.6884  2159.4223 C.ar     661 DG      0.0000
   1668 N7        -3.3460    -3.4118  2159.3326 N.ar     661 DG      0.0000
   1669 C5        -1.9901    -3.4096  2159.0156 C.ar     661 DG      0.0000
   1670 C6        -1.0754    -2.3516  2158.7897 C.2      661 DG      0.0000
   1671 O6        -1.2914    -1.1395  2158.8110 O.2      661 DG      0.0000
   1672 N1         0.2059    -2.7397  2158.5082 N.am     661 DG      0.0000
   1673 C2         0.5707    -3.9804  2158.4475 C.2      661 DG      0.0000
   1674 N2         1.8091    -4.0671  2158.1508 N.pl3    661 DG      0.0000
   1675 N3        -0.2540    -5.0904  2158.6563 N.2      661 DG      0.0000
   1676 C4        -1.5080    -4.7022  2158.9289 C.ar     661 DG      0.0000
   1677 H5'       -5.7744    -9.7182  2157.9066 H        661 DG      0.0000
   1678 H5''      -5.4722    -8.1425  2157.1299 H        661 DG      0.0000
   1679 H4'       -3.5154    -9.5905  2158.0994 H        661 DG      0.0000
   1680 H3'       -4.7225    -9.0096  2160.5502 H        661 DG      0.0000
   1681 H2'       -3.9855    -6.8450  2160.8052 H        661 DG      0.0000
   1682 H2''      -2.4556    -7.6503  2161.2697 H        661 DG      0.0000
   1683 H1'       -1.4950    -7.3368  2159.1906 H        661 DG      0.0000
   1684 H8        -4.6363    -5.0450  2159.6554 H        661 DG      0.0000
   1685 H1         0.8994    -2.0250  2158.3398 H        661 DG      0.0000
   1686 H21        2.3537    -3.2289  2158.0064 H        661 DG      0.0000
   1687 H22        2.2443    -4.9740  2158.0603 H        661 DG      0.0000
   1688 P         -2.2513   -10.1898  2161.7968 P.3      662 DT      0.0000
   1689 OP1       -2.2129   -11.6065  2162.3085 O.co2    662 DT      0.0000
   1690 OP2       -3.2547    -9.4691  2162.7155 O.co2    662 DT      0.0000
   1691 O5'       -0.9000    -9.4307  2161.8254 O.3      662 DT      0.0000
   1692 C5'        0.3865   -10.0930  2161.6814 C.3      662 DT      0.0000
   1693 C4'        1.4020    -8.9710  2161.7389 C.3      662 DT      0.0000
   1694 O4'        0.8237    -7.7141  2161.4638 O.3      662 DT      0.0000
   1695 C3'        2.1193    -8.7825  2163.0516 C.3      662 DT      0.0000
   1696 O3'        3.5125    -9.0714  2162.8634 O.3      662 DT      0.0000
   1697 C2'        1.8964    -7.3221  2163.4439 C.3      662 DT      0.0000
   1698 C1'        1.6631    -6.7012  2162.0911 C.3      662 DT      0.0000
   1699 N1         0.8701    -5.4755  2162.1878 N.am     662 DT      0.0000
   1700 C2         1.5198    -4.2873  2161.9898 C.2      662 DT      0.0000
   1701 O2         2.7237    -4.2252  2161.7517 O.2      662 DT      0.0000
   1702 N3         0.7692    -3.1454  2162.0709 N.am     662 DT      0.0000
   1703 C4        -0.5586    -3.1551  2162.3268 C.2      662 DT      0.0000
   1704 O4        -1.1139    -2.0263  2162.3721 O.2      662 DT      0.0000
   1705 C5        -1.2219    -4.4083  2162.5265 C.2      662 DT      0.0000
   1706 C7        -2.6886    -4.4630  2162.8064 C.3      662 DT      0.0000
   1707 C6        -0.4799    -5.5202  2162.4450 C.2      662 DT      0.0000
   1708 H5'        0.5482   -10.8003  2162.4948 H        662 DT      0.0000
   1709 H5''       0.4425   -10.6040  2160.7202 H        662 DT      0.0000
   1710 H4'        2.1543    -9.1647  2160.9744 H        662 DT      0.0000
   1711 H3'        1.6974    -9.4435  2163.8087 H        662 DT      0.0000
   1712 H2'        1.0278    -7.2089  2164.0927 H        662 DT      0.0000
   1713 H2''       2.7879    -6.9060  2163.9131 H        662 DT      0.0000
   1714 H1'        2.5939    -6.5453  2161.5458 H        662 DT      0.0000
   1715 H3         1.2276    -2.2560  2161.9334 H        662 DT      0.0000
   1716 H6        -0.9556    -6.4796  2162.5854 H        662 DT      0.0000
   1717 H71       -3.2212    -4.7535  2161.9009 H        662 DT      0.0000
   1718 H72       -3.0331    -3.4813  2163.1312 H        662 DT      0.0000
   1719 H73       -2.8816    -5.1939  2163.5917 H        662 DT      0.0000
   1720 P          4.1869    -9.8150  2164.1434 P.3      663 DG      0.0000
   1721 OP1        5.1469   -10.7573  2163.4283 O.co2    663 DG      0.0000
   1722 OP2        3.1462   -10.4913  2164.8969 O.co2    663 DG      0.0000
   1723 O5'        4.8977    -8.4780  2164.7529 O.3      663 DG      0.0000
   1724 C5'        5.5680    -7.7400  2163.6623 C.3      663 DG      0.0000
   1725 C4'        5.9146    -6.3760  2164.1823 C.3      663 DG      0.0000
   1726 O4'        4.9508    -5.3731  2164.0018 O.3      663 DG      0.0000
   1727 C3'        6.2654    -6.3890  2165.6904 C.3      663 DG      0.0000
   1728 O3'        7.5684    -5.7773  2165.8492 O.3      663 DG      0.0000
   1729 C2'        5.1018    -5.6735  2166.3430 C.3      663 DG      0.0000
   1730 C1'        4.7048    -4.6756  2165.2614 C.3      663 DG      0.0000
   1731 N9         3.3180    -4.2278  2165.4309 N.ar     663 DG      0.0000
   1732 C8         2.2160    -4.9646  2165.7671 C.ar     663 DG      0.0000
   1733 N7         1.1003    -4.2742  2165.8529 N.ar     663 DG      0.0000
   1734 C5         1.5064    -2.9832  2165.5229 C.ar     663 DG      0.0000
   1735 C6         0.7668    -1.7697  2165.4285 C.2      663 DG      0.0000
   1736 O6        -0.4457    -1.5945  2165.6208 O.2      663 DG      0.0000
   1737 N1         1.5211    -0.6686  2165.0935 N.am     663 DG      0.0000
   1738 C2         2.8614    -0.7544  2164.8697 C.2      663 DG      0.0000
   1739 N2         3.4325     0.4172  2164.5609 N.pl3    663 DG      0.0000
   1740 N3         3.5951    -1.8627  2164.9407 N.2      663 DG      0.0000
   1741 C4         2.8602    -2.9396  2165.2673 C.ar     663 DG      0.0000
   1742 H5'        6.4750    -8.2644  2163.3618 H        663 DG      0.0000
   1743 H5''       4.8947    -7.6496  2162.8099 H        663 DG      0.0000
   1744 H4'        6.8103    -6.0532  2163.6518 H        663 DG      0.0000
   1745 H3'        6.3028    -7.4190  2166.0451 H        663 DG      0.0000
   1746 H2'        4.2870    -6.3623  2166.5659 H        663 DG      0.0000
   1747 H2''       5.4256    -5.1550  2167.2454 H        663 DG      0.0000
   1748 H1'        5.3649    -3.8102  2165.3203 H        663 DG      0.0000
   1749 H8         2.2587    -6.0286  2165.9478 H        663 DG      0.0000
   1750 H1         1.0671     0.2299  2165.0111 H        663 DG      0.0000
   1751 H21        2.8709     1.2552  2164.5107 H        663 DG      0.0000
   1752 H22        4.4249     0.4628  2164.3782 H        663 DG      0.0000
   1753 P          8.2850    -5.7271  2167.2377 P.3      664 DA      0.0000
   1754 OP1        9.1498    -6.8929  2167.5930 O.co2    664 DA      0.0000
   1755 OP2        6.9944    -5.8038  2168.1334 O.co2    664 DA      0.0000
   1756 O5'        8.8359    -4.2611  2167.4868 O.3      664 DA      0.0000
   1757 C5'        9.1280    -3.3043  2166.4577 C.3      664 DA      0.0000
   1758 C4'        8.5032    -2.0022  2166.9321 C.3      664 DA      0.0000
   1759 O4'        7.0962    -2.0705  2166.8417 O.3      664 DA      0.0000
   1760 C3'        8.8362    -1.5732  2168.3611 C.3      664 DA      0.0000
   1761 O3'        9.2153    -0.1823  2168.4134 O.3      664 DA      0.0000
   1762 C2'        7.5223    -1.8640  2169.0965 C.3      664 DA      0.0000
   1763 C1'        6.5403    -1.4298  2168.0190 C.3      664 DA      0.0000
   1764 N9         5.1684    -1.8945  2168.2474 N.ar     664 DA      0.0000
   1765 C8         4.6934    -3.1570  2168.4631 C.ar     664 DA      0.0000
   1766 N7         3.3907    -3.2151  2168.6281 N.ar     664 DA      0.0000
   1767 C5         2.9786    -1.8983  2168.4879 C.ar     664 DA      0.0000
   1768 C6         1.6964    -1.3090  2168.5359 C.ar     664 DA      0.0000
   1769 N6         0.5641    -1.9815  2168.7556 N.pl3    664 DA      0.0000
   1770 N1         1.6696     0.0437  2168.3460 N.ar     664 DA      0.0000
   1771 C2         2.8060     0.7452  2168.1283 C.ar     664 DA      0.0000
   1772 N3         4.0451     0.2587  2168.0700 N.ar     664 DA      0.0000
   1773 C4         4.0524    -1.0737  2168.2569 C.ar     664 DA      0.0000
   1774 H5'        8.6878    -3.6161  2165.5105 H        664 DA      0.0000
   1775 H5''      10.2062    -3.1861  2166.3499 H        664 DA      0.0000
   1776 H4'        8.8396    -1.2107  2166.2623 H        664 DA      0.0000
   1777 H3'        9.6362    -2.1952  2168.7625 H        664 DA      0.0000
   1778 H2'        7.4175    -2.9208  2169.3420 H        664 DA      0.0000
   1779 H2''       7.4262    -1.2434  2169.9874 H        664 DA      0.0000
   1780 H1'        6.5587    -0.3460  2167.9044 H        664 DA      0.0000
   1781 H8         5.3306    -4.0284  2168.4952 H        664 DA      0.0000
   1782 H2         2.6974     1.8104  2167.9869 H        664 DA      0.0000
   1783 H61        0.4564    -2.9811  2168.6582 H        664 DA      0.0000
   1784 H62       -0.3133    -1.5116  2168.5841 H        664 DA      0.0000
   1785 P         10.2388     0.4074  2169.5548 P.3      665 DA      0.0000
   1786 OP1       11.4696     0.9693  2168.8878 O.co2    665 DA      0.0000
   1787 OP2       10.4611    -0.7934  2170.3858 O.co2    665 DA      0.0000
   1788 O5'        9.4581     1.6934  2170.0857 O.3      665 DA      0.0000
   1789 C5'        9.1209     2.8079  2169.2613 C.3      665 DA      0.0000
   1790 C4'        7.8269     3.4069  2169.7836 C.3      665 DA      0.0000
   1791 O4'        6.8016     2.4544  2169.8118 O.3      665 DA      0.0000
   1792 C3'        7.8630     4.0673  2171.1510 C.3      665 DA      0.0000
   1793 O3'        7.5808     5.4644  2171.0731 O.3      665 DA      0.0000
   1794 C2'        6.8673     3.2462  2171.9797 C.3      665 DA      0.0000
   1795 C1'        5.9484     2.6493  2170.9859 C.3      665 DA      0.0000
   1796 N9         5.2996     1.3530  2171.2539 N.ar     665 DA      0.0000
   1797 C8         5.8470     0.0982  2171.3691 C.ar     665 DA      0.0000
   1798 N7         4.9654    -0.8586  2171.5384 N.ar     665 DA      0.0000
   1799 C5         3.7437    -0.1940  2171.5014 C.ar     665 DA      0.0000
   1800 C6         2.4050    -0.6643  2171.6219 C.ar     665 DA      0.0000
   1801 N6         2.0467    -1.9278  2171.8135 N.pl3    665 DA      0.0000
   1802 N1         1.4285     0.2951  2171.5237 N.ar     665 DA      0.0000
   1803 C2         1.7585     1.6057  2171.3346 C.ar     665 DA      0.0000
   1804 N3         2.9823     2.1105  2171.2268 N.ar     665 DA      0.0000
   1805 C4         3.9305     1.1566  2171.3186 C.ar     665 DA      0.0000
   1806 H5'        8.9858     2.4779  2168.2313 H        665 DA      0.0000
   1807 H5''       9.9155     3.5527  2169.3073 H        665 DA      0.0000
   1808 H4'        7.5246     4.1742  2169.0709 H        665 DA      0.0000
   1809 H3'        8.8589     3.9366  2171.5742 H        665 DA      0.0000
   1810 H2'        7.3849     2.4676  2172.5400 H        665 DA      0.0000
   1811 H2''       6.3165     3.8965  2172.6593 H        665 DA      0.0000
   1812 H1'        5.1783     3.3803  2170.7398 H        665 DA      0.0000
   1813 H8         6.9104    -0.0848  2171.3243 H        665 DA      0.0000
   1814 H2         0.9389     2.3056  2171.2654 H        665 DA      0.0000
   1815 H61        2.6967    -2.6287  2172.1397 H        665 DA      0.0000
   1816 H62        1.0915    -2.1976  2171.6267 H        665 DA      0.0000
   1817 P          8.2218     6.6129  2172.0293 P.3      666 DT      0.0000
   1818 OP1        8.6060     7.8542  2171.2320 O.co2    666 DT      0.0000
   1819 OP2        9.2804     6.0630  2172.8499 O.co2    666 DT      0.0000
   1820 O5'        6.8943     7.1426  2172.8431 O.3      666 DT      0.0000
   1821 C5'        5.7429     7.2181  2171.8980 C.3      666 DT      0.0000
   1822 C4'        4.5775     6.6755  2172.6857 C.3      666 DT      0.0000
   1823 O4'        4.6246     5.2795  2172.8777 O.3      666 DT      0.0000
   1824 C3'        4.5031     7.2747  2174.1023 C.3      666 DT      0.0000
   1825 O3'        3.5670     8.3366  2174.1039 O.3      666 DT      0.0000
   1826 C2'        4.1372     6.0950  2174.9995 C.3      666 DT      0.0000
   1827 C1'        3.7045     5.0642  2174.0349 C.3      666 DT      0.0000
   1828 N1         3.7857     3.6525  2174.3747 N.am     666 DT      0.0000
   1829 C2         2.5816     2.9691  2174.5126 C.2      666 DT      0.0000
   1830 O2         1.5228     3.5775  2174.4246 O.2      666 DT      0.0000
   1831 N3         2.6257     1.6315  2174.7666 N.am     666 DT      0.0000
   1832 C4         3.7981     0.9418  2174.8867 C.2      666 DT      0.0000
   1833 O4         3.7558    -0.3041  2175.1419 O.2      666 DT      0.0000
   1834 C5         5.0256     1.6624  2174.7152 C.2      666 DT      0.0000
   1835 C7         6.3446     0.9458  2174.8027 C.3      666 DT      0.0000
   1836 C6         4.9765     2.9812  2174.4594 C.2      666 DT      0.0000
   1837 H5'        5.5582     8.2492  2171.5963 H        666 DT      0.0000
   1838 H5''       5.9304     6.5958  2171.0229 H        666 DT      0.0000
   1839 H4'        3.6569     6.9218  2172.1565 H        666 DT      0.0000
   1840 H3'        5.4840     7.6557  2174.3866 H        666 DT      0.0000
   1841 H2'        5.0003     5.7569  2175.5729 H        666 DT      0.0000
   1842 H2''       3.3171     6.3623  2175.6659 H        666 DT      0.0000
   1843 H1'        2.6862     5.2887  2173.7176 H        666 DT      0.0000
   1844 H3         1.7555     1.1293  2174.8703 H        666 DT      0.0000
   1845 H6         5.8989     3.5248  2174.3172 H        666 DT      0.0000
   1846 H71        6.1720    -0.1091  2175.0157 H        666 DT      0.0000
   1847 H72        6.8741     1.0430  2173.8549 H        666 DT      0.0000
   1848 H73        6.9441     1.3843  2175.6005 H        666 DT      0.0000
   1849 P          3.2825     9.3873  2175.2106 P.3      667 DT      0.0000
   1850 OP1        2.6273    10.6525  2174.5985 O.co2    667 DT      0.0000
   1851 OP2        4.5924     9.6944  2175.8405 O.co2    667 DT      0.0000
   1852 O5'        2.1131     8.7346  2176.0929 O.3      667 DT      0.0000
   1853 C5'        0.8478     8.6789  2175.3811 C.3      667 DT      0.0000
   1854 C4'       -0.0374     7.6903  2176.0573 C.3      667 DT      0.0000
   1855 O4'        0.4644     6.3598  2176.0339 O.3      667 DT      0.0000
   1856 C3'       -0.3513     8.0191  2177.5239 C.3      667 DT      0.0000
   1857 O3'       -1.7258     7.8112  2177.7879 O.3      667 DT      0.0000
   1858 C2'        0.4909     6.9502  2178.2602 C.3      667 DT      0.0000
   1859 C1'        0.1601     5.7798  2177.3567 C.3      667 DT      0.0000
   1860 N1         1.0019     4.6358  2177.6544 N.am     667 DT      0.0000
   1861 C2         0.4167     3.3811  2177.7092 C.2      667 DT      0.0000
   1862 O2        -0.7965     3.2804  2177.5208 O.2      667 DT      0.0000
   1863 N3         1.2170     2.3059  2177.9751 N.am     667 DT      0.0000
   1864 C4         2.5564     2.4317  2178.1821 C.2      667 DT      0.0000
   1865 O4         3.2360     1.3893  2178.4054 O.2      667 DT      0.0000
   1866 C5         3.1483     3.7268  2178.1171 C.2      667 DT      0.0000
   1867 C7         4.6181     3.9465  2178.3270 C.3      667 DT      0.0000
   1868 C6         2.3476     4.7718  2177.8559 C.2      667 DT      0.0000
   1869 H5'        0.3765     9.6617  2175.3935 H        667 DT      0.0000
   1870 H5''       1.0212     8.3695  2174.3504 H        667 DT      0.0000
   1871 H4'       -0.9851     7.6861  2175.5188 H        667 DT      0.0000
   1872 H3'       -0.0387     9.0298  2177.7863 H        667 DT      0.0000
   1873 H2'        1.5547     7.1873  2178.2590 H        667 DT      0.0000
   1874 H2''       0.1232     6.7849  2179.2730 H        667 DT      0.0000
   1875 H1'       -0.8948     5.5163  2177.4323 H        667 DT      0.0000
   1876 H3         0.8005     1.3868  2178.0195 H        667 DT      0.0000
   1877 H6         2.7831     5.7587  2177.8028 H        667 DT      0.0000
   1878 H71        5.1041     2.9913  2178.5259 H        667 DT      0.0000
   1879 H72        5.0498     4.3939  2177.4317 H        667 DT      0.0000
   1880 H73        4.7682     4.6141  2179.1754 H        667 DT      0.0000
   1881 P         -2.2135    -8.2966  2180.0717 P.3      667 DA      0.0000
   1882 OP1       -3.5027    -8.5807  2180.8531 O.co2    667 DA      0.0000
   1883 OP2       -2.1411    -9.1437  2178.8790 O.co2    667 DA      0.0000
   1884 O5'       -2.1521    -6.6781  2179.8969 O.3      667 DA      0.0000
   1885 C5'       -2.7530    -5.9831  2181.0534 C.3      667 DA      0.0000
   1886 C4'       -3.9404    -5.2166  2180.5255 C.3      667 DA      0.0000
   1887 O4'       -3.6490    -3.8602  2180.3033 O.3      667 DA      0.0000
   1888 C3'       -4.4452    -5.7491  2179.1851 C.3      667 DA      0.0000
   1889 O3'       -5.8505    -5.7790  2179.1099 O.3      667 DA      0.0000
   1890 C2'       -3.7034    -4.8766  2178.1885 C.3      667 DA      0.0000
   1891 C1'       -3.3533    -3.6065  2178.9123 C.3      667 DA      0.0000
   1892 N9        -1.9497    -3.2213  2178.6868 N.ar     667 DA      0.0000
   1893 C8        -0.8489    -4.0294  2178.5005 C.ar     667 DA      0.0000
   1894 N7         0.2742    -3.3778  2178.3046 N.ar     667 DA      0.0000
   1895 C5        -0.1115    -2.0460  2178.3914 C.ar     667 DA      0.0000
   1896 C6         0.6324    -0.8476  2178.2858 C.ar     667 DA      0.0000
   1897 N6         1.9360    -0.8075  2178.0733 N.pl3    667 DA      0.0000
   1898 N1        -0.0753     0.3092  2178.4095 N.ar     667 DA      0.0000
   1899 C2        -1.4224     0.2979  2178.6340 C.ar     667 DA      0.0000
   1900 N3        -2.1787    -0.7918  2178.7499 N.ar     667 DA      0.0000
   1901 C4        -1.4643    -1.9350  2178.6138 C.ar     667 DA      0.0000
   1902 H5'       -3.0753    -6.7074  2181.8014 H        667 DA      0.0000
   1903 H5''      -2.0299    -5.2942  2181.4900 H        667 DA      0.0000
   1904 H4'       -4.7492    -5.2839  2181.2532 H        667 DA      0.0000
   1905 H3'       -4.0818    -6.7705  2179.0719 H        667 DA      0.0000
   1906 H2'       -4.3406    -4.6583  2177.3316 H        667 DA      0.0000
   1907 H2''      -2.7945    -5.3793  2177.8579 H        667 DA      0.0000
   1908 H1'       -4.0007    -2.8062  2178.5541 H        667 DA      0.0000
   1909 H8        -0.9053    -5.1078  2178.5144 H        667 DA      0.0000
   1910 H2        -1.9161     1.2541  2178.7253 H        667 DA      0.0000
   1911 H61        2.4929    -0.0261  2178.3887 H        667 DA      0.0000
   1912 H62        2.3832    -1.5714  2177.5871 H        667 DA      0.0000
   1913 P         -6.8419    -5.4462  2177.9253 P.3      666 DA      0.0000
   1914 OP1       -8.3074    -5.3751  2178.4452 O.co2    666 DA      0.0000
   1915 OP2       -6.7131    -6.6082  2176.9916 O.co2    666 DA      0.0000
   1916 O5'       -6.5033    -3.9920  2177.4226 O.3      666 DA      0.0000
   1917 C5'       -7.2885    -2.8709  2177.8784 C.3      666 DA      0.0000
   1918 C4'       -6.7530    -1.6420  2177.1765 C.3      666 DA      0.0000
   1919 O4'       -5.3594    -1.6096  2177.0557 O.3      666 DA      0.0000
   1920 C3'       -7.3161    -1.4504  2175.7690 C.3      666 DA      0.0000
   1921 O3'       -8.1346    -0.2660  2175.7375 O.3      666 DA      0.0000
   1922 C2'       -6.0799    -1.5042  2174.8694 C.3      666 DA      0.0000
   1923 C1'       -4.9812    -1.0217  2175.7672 C.3      666 DA      0.0000
   1924 N9        -3.6369    -1.5037  2175.4676 N.ar     666 DA      0.0000
   1925 C8        -3.1958    -2.7963  2175.2728 C.ar     666 DA      0.0000
   1926 N7        -1.9010    -2.8895  2175.0674 N.ar     666 DA      0.0000
   1927 C5        -1.4523    -1.5852  2175.1419 C.ar     666 DA      0.0000
   1928 C6        -0.1634    -1.0218  2175.0085 C.ar     666 DA      0.0000
   1929 N6         0.9337    -1.7323  2174.7653 N.pl3    666 DA      0.0000
   1930 N1        -0.1032     0.3406  2175.1573 N.ar     666 DA      0.0000
   1931 C2        -1.1965     1.0857  2175.4098 C.ar     666 DA      0.0000
   1932 N3        -2.4429     0.6238  2175.5487 N.ar     666 DA      0.0000
   1933 C4        -2.4990    -0.7187  2175.4015 C.ar     666 DA      0.0000
   1934 H5'       -8.3376    -3.0203  2177.6233 H        666 DA      0.0000
   1935 H5''      -7.1818    -2.7577  2178.9572 H        666 DA      0.0000
   1936 H4'       -7.0491    -0.7748  2177.7666 H        666 DA      0.0000
   1937 H3'       -7.9468    -2.3077  2175.5340 H        666 DA      0.0000
   1938 H2'       -5.8881    -2.5220  2174.5295 H        666 DA      0.0000
   1939 H2''      -6.1986    -0.8340  2174.0181 H        666 DA      0.0000
   1940 H1'       -4.9902     0.0666  2175.8283 H        666 DA      0.0000
   1941 H8        -3.8538    -3.6526  2175.2878 H        666 DA      0.0000
   1942 H2        -1.0531     2.1515  2175.5089 H        666 DA      0.0000
   1943 H61        1.7996    -1.3034  2175.0593 H        666 DA      0.0000
   1944 H62        0.9035    -2.6374  2174.3180 H        666 DA      0.0000
   1945 P         -8.8357     0.1610  2174.3525 P.3      665 DT      0.0000
   1946 OP1       -9.9199     1.1927  2174.4107 O.co2    665 DT      0.0000
   1947 OP2       -9.2536    -1.1797  2173.8399 O.co2    665 DT      0.0000
   1948 O5'       -7.5204     0.9049  2173.6494 O.3      665 DT      0.0000
   1949 C5'       -6.8301     1.6982  2174.6617 C.3      665 DT      0.0000
   1950 C4'       -6.0259     2.7578  2173.9788 C.3      665 DT      0.0000
   1951 O4'       -4.6852     2.4119  2173.7984 O.3      665 DT      0.0000
   1952 C3'       -6.5658     3.1684  2172.6175 C.3      665 DT      0.0000
   1953 O3'       -6.4147     4.5680  2172.3502 O.3      665 DT      0.0000
   1954 C2'       -5.7328     2.2400  2171.7242 C.3      665 DT      0.0000
   1955 C1'       -4.3651     2.3449  2172.3642 C.3      665 DT      0.0000
   1956 N1        -3.5716     1.1229  2172.1342 N.am     665 DT      0.0000
   1957 C2        -2.2005     1.2647  2172.0126 C.2      665 DT      0.0000
   1958 O2        -1.6692     2.3757  2172.0494 O.2      665 DT      0.0000
   1959 N3        -1.4502     0.1325  2171.8452 N.am     665 DT      0.0000
   1960 C4        -2.0149    -1.1039  2171.7967 C.2      665 DT      0.0000
   1961 O4        -1.2466    -2.0943  2171.6112 O.2      665 DT      0.0000
   1962 C5        -3.4246    -1.2294  2171.9451 C.2      665 DT      0.0000
   1963 C7        -4.0865    -2.5859  2171.8930 C.3      665 DT      0.0000
   1964 C6        -4.1426    -0.1147  2172.1181 C.2      665 DT      0.0000
   1965 H5'       -7.5608     2.1628  2175.3238 H        665 DT      0.0000
   1966 H5''      -6.1687     1.0546  2175.2418 H        665 DT      0.0000
   1967 H4'       -6.0489     3.6420  2174.6158 H        665 DT      0.0000
   1968 H3'       -7.6185     2.8953  2172.5455 H        665 DT      0.0000
   1969 H2'       -6.1083     1.2172  2171.7548 H        665 DT      0.0000
   1970 H2''      -5.7084     2.6110  2170.6996 H        665 DT      0.0000
   1971 H1'       -3.8338     3.2363  2172.0303 H        665 DT      0.0000
   1972 H3        -0.4478     0.2174  2171.7551 H        665 DT      0.0000
   1973 H6        -5.2114    -0.1978  2172.2495 H        665 DT      0.0000
   1974 H71       -4.4673    -2.7665  2170.8878 H        665 DT      0.0000
   1975 H72       -4.9117    -2.6148  2172.6045 H        665 DT      0.0000
   1976 H73       -3.3584    -3.3554  2172.1495 H        665 DT      0.0000
   1977 P         -6.8782     5.0576  2170.8603 P.3      664 DT      0.0000
   1978 OP1       -8.0940     5.9744  2171.0083 O.co2    664 DT      0.0000
   1979 OP2       -7.2890     3.7777  2170.1905 O.co2    664 DT      0.0000
   1980 O5'       -5.6731     5.7822  2170.2083 O.3      664 DT      0.0000
   1981 C5'       -4.6877     6.4912  2170.9597 C.3      664 DT      0.0000
   1982 C4'       -3.3946     6.4304  2170.2117 C.3      664 DT      0.0000
   1983 O4'       -2.7123     5.2069  2170.1547 O.3      664 DT      0.0000
   1984 C3'       -3.3962     6.9150  2168.7456 C.3      664 DT      0.0000
   1985 O3'       -2.0964     7.5041  2168.6419 O.3      664 DT      0.0000
   1986 C2'       -3.4899     5.5875  2167.9819 C.3      664 DT      0.0000
   1987 C1'       -2.4175     4.8502  2168.7576 C.3      664 DT      0.0000
   1988 N1        -2.4419     3.3886  2168.6514 N.am     664 DT      0.0000
   1989 C2        -1.1867     2.7654  2168.6508 C.2      664 DT      0.0000
   1990 O2        -0.1477     3.4274  2168.6939 O.2      664 DT      0.0000
   1991 N3        -1.1708     1.4013  2168.5974 N.am     664 DT      0.0000
   1992 C4        -2.3080     0.6517  2168.5376 C.2      664 DT      0.0000
   1993 O4        -2.1877    -0.6088  2168.4752 O.2      664 DT      0.0000
   1994 C5        -3.5681     1.3097  2168.5459 C.2      664 DT      0.0000
   1995 C7        -4.8396     0.4893  2168.4844 C.3      664 DT      0.0000
   1996 C6        -3.5789     2.6442  2168.6123 C.2      664 DT      0.0000
   1997 H5'       -4.9943     7.5300  2171.0819 H        664 DT      0.0000
   1998 H5''      -4.5679     6.0263  2171.9382 H        664 DT      0.0000
   1999 H4'       -2.7247     7.1096  2170.7389 H        664 DT      0.0000
   2000 H3'       -4.2070     7.6067  2168.5169 H        664 DT      0.0000
   2001 H2'       -3.2405     5.6956  2166.9263 H        664 DT      0.0000
   2002 H2''      -4.4664     5.1216  2168.1135 H        664 DT      0.0000
   2003 H1'       -1.4331     5.2261  2168.4786 H        664 DT      0.0000
   2004 H3        -0.2789     0.9274  2168.6022 H        664 DT      0.0000
   2005 H6        -4.5312     3.1530  2168.6360 H        664 DT      0.0000
   2006 H71       -4.5872    -0.5699  2168.4356 H        664 DT      0.0000
   2007 H72       -5.4091     0.7681  2167.5978 H        664 DT      0.0000
   2008 H73       -5.4381     0.6795  2169.3754 H        664 DT      0.0000
   2009 P         -1.5745     8.4119  2167.4956 P.3      663 DC      0.0000
   2010 OP1       -0.9182     9.6523  2168.1048 O.co2    663 DC      0.0000
   2011 OP2       -2.7847     8.8162  2166.7138 O.co2    663 DC      0.0000
   2012 O5'       -0.5231     7.4109  2166.7562 O.3      663 DC      0.0000
   2013 C5'        0.7310     7.1878  2167.4808 C.3      663 DC      0.0000
   2014 C4'        1.7980     7.0209  2166.4302 C.3      663 DC      0.0000
   2015 O4'        2.0981     5.6666  2166.1849 O.3      663 DC      0.0000
   2016 C3'        1.4710     7.6301  2165.0658 C.3      663 DC      0.0000
   2017 O3'        2.6002     8.1446  2164.3565 O.3      663 DC      0.0000
   2018 C2'        0.7857     6.4403  2164.3797 C.3      663 DC      0.0000
   2019 C1'        1.5701     5.2489  2164.9263 C.3      663 DC      0.0000
   2020 N1         0.6372     4.1037  2165.0441 N.am     663 DC      0.0000
   2021 C2         1.1992     2.8279  2165.0613 C.2      663 DC      0.0000
   2022 O2         2.4255     2.6673  2164.9926 O.2      663 DC      0.0000
   2023 N3         0.3409     1.7667  2165.1645 N.2      663 DC      0.0000
   2024 C4        -1.0059     1.9312  2165.2353 C.2      663 DC      0.0000
   2025 N4        -1.8019     0.8646  2165.3372 N.pl3    663 DC      0.0000
   2026 C5        -1.5536     3.2442  2165.2102 C.2      663 DC      0.0000
   2027 C6        -0.7097     4.2861  2165.1166 C.2      663 DC      0.0000
   2028 H5'        0.9573     8.0437  2168.1167 H        663 DC      0.0000
   2029 H5''       0.6572     6.2834  2168.0846 H        663 DC      0.0000
   2030 H4'        2.7048     7.5003  2166.7990 H        663 DC      0.0000
   2031 H3'        0.7424     8.4295  2165.2000 H        663 DC      0.0000
   2032 H2'        0.8743     6.5063  2163.2953 H        663 DC      0.0000
   2033 H2''      -0.2615     6.3781  2164.6756 H        663 DC      0.0000
   2034 H1'        2.3843     4.9968  2164.2469 H        663 DC      0.0000
   2035 H5        -2.6209     3.3998  2165.2649 H        663 DC      0.0000
   2036 H6        -1.1088     5.2895  2165.0985 H        663 DC      0.0000
   2037 H41       -1.4030    -0.0631  2165.3579 H        663 DC      0.0000
   2038 H42       -2.8031     0.9851  2165.3936 H        663 DC      0.0000
   2039 P          2.8255     8.0819  2162.7245 P.3      662 DA      0.0000
   2040 OP1        3.7861     9.1846  2162.3350 O.co2    662 DA      0.0000
   2041 OP2        1.4572     8.2152  2162.1545 O.co2    662 DA      0.0000
   2042 O5'        3.5790     6.6843  2162.5590 O.3      662 DA      0.0000
   2043 C5'        4.9816     6.5953  2163.0244 C.3      662 DA      0.0000
   2044 C4'        5.5291     5.4824  2162.1471 C.3      662 DA      0.0000
   2045 O4'        4.8237     4.2637  2162.4145 O.3      662 DA      0.0000
   2046 C3'        5.3191     5.7302  2160.6427 C.3      662 DA      0.0000
   2047 O3'        6.1496     4.8934  2159.8537 O.3      662 DA      0.0000
   2048 C2'        3.8933     5.1798  2160.4553 C.3      662 DA      0.0000
   2049 C1'        4.1649     3.8497  2161.2099 C.3      662 DA      0.0000
   2050 N9         2.8485     3.2370  2161.3553 N.ar     662 DA      0.0000
   2051 C8         1.6420     3.8967  2161.4282 C.ar     662 DA      0.0000
   2052 N7         0.6157     3.0917  2161.5428 N.ar     662 DA      0.0000
   2053 C5         1.1985     1.8118  2161.5364 C.ar     662 DA      0.0000
   2054 C6         0.6121     0.5202  2161.6364 C.ar     662 DA      0.0000
   2055 N6        -0.7013     0.3079  2161.7592 N.pl3    662 DA      0.0000
   2056 N1         1.5054    -0.5078  2161.6012 N.ar     662 DA      0.0000
   2057 C2         2.8385    -0.2928  2161.4824 C.ar     662 DA      0.0000
   2058 N3         3.4551     0.8891  2161.3909 N.ar     662 DA      0.0000
   2059 C4         2.5639     1.8954  2161.4184 C.ar     662 DA      0.0000
   2060 H5'        5.5152     7.5310  2162.8577 H        662 DA      0.0000
   2061 H5''       5.0211     6.3115  2164.0760 H        662 DA      0.0000
   2062 H4'        6.5909     5.3437  2162.3511 H        662 DA      0.0000
   2063 H3'        5.4034     6.7829  2160.3731 H        662 DA      0.0000
   2064 H2'        3.1330     5.7947  2160.9369 H        662 DA      0.0000
   2065 H2''       3.6638     5.0064  2159.4039 H        662 DA      0.0000
   2066 H1'        4.8195     3.2068  2160.6215 H        662 DA      0.0000
   2067 H8         1.5513     4.9724  2161.3942 H        662 DA      0.0000
   2068 H2         3.4689    -1.1694  2161.4592 H        662 DA      0.0000
   2069 H61       -1.3393     1.0905  2161.7840 H        662 DA      0.0000
   2070 H62       -1.0562    -0.6353  2161.8273 H        662 DA      0.0000
   2071 P          7.0690     5.5053  2158.7128 P.3      661 DC      0.0000
   2072 OP1        8.2940     5.9528  2159.4930 O.co2    661 DC      0.0000
   2073 OP2        6.4168     6.6012  2157.9872 O.co2    661 DC      0.0000
   2074 O5'        7.2534     4.1946  2157.7369 O.3      661 DC      0.0000
   2075 C5'        7.7186     2.9606  2158.4059 C.3      661 DC      0.0000
   2076 C4'        7.0376     1.7820  2157.7619 C.3      661 DC      0.0000
   2077 O4'        5.8239     1.4024  2158.3990 O.3      661 DC      0.0000
   2078 C3'        6.6878     2.0268  2156.2841 C.3      661 DC      0.0000
   2079 O3'        6.7600     0.8611  2155.4728 O.3      661 DC      0.0000
   2080 C2'        5.1891     2.4418  2156.4497 C.3      661 DC      0.0000
   2081 C1'        4.8610     1.1908  2157.3453 C.3      661 DC      0.0000
   2082 N1         3.4413     1.2046  2157.5832 N.am     661 DC      0.0000
   2083 C2         2.8132     0.0111  2157.9003 C.2      661 DC      0.0000
   2084 O2         3.2915    -1.1201  2158.0408 O.2      661 DC      0.0000
   2085 N3         1.4605     0.0310  2158.0985 N.2      661 DC      0.0000
   2086 C4         0.7281     1.1803  2157.9826 C.2      661 DC      0.0000
   2087 N4        -0.5963     1.1532  2158.1986 N.pl3    661 DC      0.0000
   2088 C5         1.3865     2.3971  2157.6529 C.2      661 DC      0.0000
   2089 C6         2.7101     2.3521  2157.4612 C.2      661 DC      0.0000
   2090 H5'        8.7989     2.8670  2158.2944 H        661 DC      0.0000
   2091 H5''       7.4616     2.9987  2159.4645 H        661 DC      0.0000
   2092 H4'        7.7203     0.9336  2157.8086 H        661 DC      0.0000
   2093 H3'        7.2810     2.8397  2155.8650 H        661 DC      0.0000
   2094 H2'        5.0568     3.3922  2156.9668 H        661 DC      0.0000
   2095 H2''       4.6522     2.4159  2155.5015 H        661 DC      0.0000
   2096 H1'        5.1225     0.2837  2156.8004 H        661 DC      0.0000
   2097 H5         0.8385     3.3232  2157.5608 H        661 DC      0.0000
   2098 H6         3.2238     3.2649  2157.1980 H        661 DC      0.0000
   2099 H41       -1.0511     0.2840  2158.4391 H        661 DC      0.0000
   2100 H42       -1.1383     2.0020  2158.1207 H        661 DC      0.0000
@<TRIPOS>BOND
     1      9     33 1
     2     41     65 1
     3     73     97 1
     4    105    127 1
     5    135    159 1
     6    197    222 1
     7    230    254 1
     8    262    287 1
     9    295    319 1
    10    327    351 1
    11      1      2 1
    12      1      3 1
    13      1      4 1
    14      4      5 1
    15      5      6 1
    16      6      7 1
    17      6      8 1
    18      7     11 1
    19      8      9 1
    20      8     10 1
    21     10     11 1
    22     11     12 1
    23     12     13 ar
    24     12     21 ar
    25     13     14 ar
    26     14     15 ar
    27     15     16 ar
    28     15     21 ar
    29     16     17 1
    30     16     18 ar
    31     18     19 ar
    32     19     20 ar
    33     20     21 ar
    34     33     34 1
    35     33     35 1
    36     33     36 1
    37     36     37 1
    38     37     38 1
    39     38     39 1
    40     38     40 1
    41     39     43 1
    42     40     41 1
    43     40     42 1
    44     42     43 1
    45     43     44 1
    46     44     45 am
    47     44     52 1
    48     45     46 2
    49     45     47 am
    50     47     48 am
    51     48     49 2
    52     48     50 1
    53     50     51 1
    54     50     52 2
    55     65     66 1
    56     65     67 1
    57     65     68 1
    58     68     69 1
    59     69     70 1
    60     70     71 1
    61     70     72 1
    62     71     75 1
    63     72     73 1
    64     72     74 1
    65     74     75 1
    66     75     76 1
    67     76     77 am
    68     76     84 1
    69     77     78 2
    70     77     79 am
    71     79     80 am
    72     80     81 2
    73     80     82 1
    74     82     83 1
    75     82     84 2
    76     97     98 1
    77     97     99 1
    78     97    100 1
    79    100    101 1
    80    101    102 1
    81    102    103 1
    82    102    104 1
    83    103    107 1
    84    104    105 1
    85    104    106 1
    86    106    107 1
    87    107    108 1
    88    108    109 am
    89    108    115 1
    90    109    110 2
    91    109    111 1
    92    111    112 2
    93    112    113 2
    94    112    114 2
    95    114    115 2
    96    127    128 1
    97    127    129 1
    98    127    130 1
    99    130    131 1
   100    131    132 1
   101    132    133 1
   102    132    134 1
   103    133    137 1
   104    134    135 1
   105    134    136 1
   106    136    137 1
   107    137    138 1
   108    138    139 ar
   109    138    147 ar
   110    139    140 ar
   111    140    141 ar
   112    141    142 ar
   113    141    147 ar
   114    142    143 1
   115    142    144 ar
   116    144    145 ar
   117    145    146 ar
   118    146    147 ar
   119    159    160 1
   120    159    161 1
   121    159    162 1
   122    162    163 1
   123    163    164 1
   124    164    165 1
   125    164    166 1
   126    165    169 1
   127    166    167 1
   128    166    168 1
   129    168    169 1
   130    169    170 1
   131    170    171 am
   132    170    177 1
   133    171    172 2
   134    171    173 1
   135    173    174 2
   136    174    175 2
   137    174    176 2
   138    176    177 2
   139    189    190 1
   140    189    191 1
   141    189    192 1
   142    192    193 1
   143    193    194 1
   144    194    195 1
   145    194    196 1
   146    195    199 1
   147    196    197 1
   148    196    198 1
   149    198    199 1
   150    199    200 1
   151    200    201 ar
   152    200    210 ar
   153    201    202 ar
   154    202    203 ar
   155    203    204 1
   156    203    210 ar
   157    204    205 2
   158    204    206 am
   159    206    207 1
   160    207    208 2
   161    207    209 2
   162    209    210 1
   163    222    223 1
   164    222    224 1
   165    222    225 1
   166    225    226 1
   167    226    227 1
   168    227    228 1
   169    227    229 1
   170    228    232 1
   171    229    230 1
   172    229    231 1
   173    231    232 1
   174    232    233 1
   175    233    234 am
   176    233    241 1
   177    234    235 2
   178    234    236 am
   179    236    237 am
   180    237    238 2
   181    237    239 1
   182    239    240 1
   183    239    241 2
   184    254    255 1
   185    254    256 1
   186    254    257 1
   187    257    258 1
   188    258    259 1
   189    259    260 1
   190    259    261 1
   191    260    264 1
   192    261    262 1
   193    261    263 1
   194    263    264 1
   195    264    265 1
   196    265    266 ar
   197    265    275 ar
   198    266    267 ar
   199    267    268 ar
   200    268    269 1
   201    268    275 ar
   202    269    270 2
   203    269    271 am
   204    271    272 1
   205    272    273 2
   206    272    274 2
   207    274    275 1
   208    287    288 1
   209    287    289 1
   210    287    290 1
   211    290    291 1
   212    291    292 1
   213    292    293 1
   214    292    294 1
   215    293    297 1
   216    294    295 1
   217    294    296 1
   218    296    297 1
   219    297    298 1
   220    298    299 ar
   221    298    307 ar
   222    299    300 ar
   223    300    301 ar
   224    301    302 ar
   225    301    307 ar
   226    302    303 1
   227    302    304 ar
   228    304    305 ar
   229    305    306 ar
   230    306    307 ar
   231    319    320 1
   232    319    321 1
   233    319    322 1
   234    322    323 1
   235    323    324 1
   236    324    325 1
   237    324    326 1
   238    325    329 1
   239    326    327 1
   240    326    328 1
   241    328    329 1
   242    329    330 1
   243    330    331 ar
   244    330    339 ar
   245    331    332 ar
   246    332    333 ar
   247    333    334 ar
   248    333    339 ar
   249    334    335 1
   250    334    336 ar
   251    336    337 ar
   252    337    338 ar
   253    338    339 ar
   254    351    352 1
   255    351    353 1
   256    351    354 1
   257    354    355 1
   258    355    356 1
   259    356    357 1
   260    356    358 1
   261    357    361 1
   262    358    359 1
   263    358    360 1
   264    360    361 1
   265    361    362 1
   266    362    363 am
   267    362    370 1
   268    363    364 2
   269    363    365 am
   270    365    366 am
   271    366    367 2
   272    366    368 1
   273    368    369 1
   274    368    370 2
   275     22      5 1
   276     23      5 1
   277     24      6 1
   278     25      8 1
   279     26     10 1
   280     27     10 1
   281     28     11 1
   282     29     13 1
   283     30     19 1
   284     53     37 1
   285     54     37 1
   286     55     38 1
   287     56     40 1
   288     57     42 1
   289     58     42 1
   290     59     43 1
   291     60     47 1
   292     61     52 1
   293     85     69 1
   294     86     69 1
   295     87     70 1
   296     88     72 1
   297     89     74 1
   298     90     74 1
   299     91     75 1
   300     92     79 1
   301     93     84 1
   302    116    101 1
   303    117    101 1
   304    118    102 1
   305    119    104 1
   306    120    106 1
   307    121    106 1
   308    122    107 1
   309    123    114 1
   310    124    115 1
   311    148    131 1
   312    149    131 1
   313    150    132 1
   314    151    134 1
   315    152    136 1
   316    153    136 1
   317    154    137 1
   318    155    139 1
   319    156    145 1
   320    178    163 1
   321    179    163 1
   322    180    164 1
   323    181    166 1
   324    182    168 1
   325    183    168 1
   326    184    169 1
   327    185    176 1
   328    186    177 1
   329    211    193 1
   330    212    193 1
   331    213    194 1
   332    214    196 1
   333    215    198 1
   334    216    198 1
   335    217    199 1
   336    218    201 1
   337    219    206 1
   338    242    226 1
   339    243    226 1
   340    244    227 1
   341    245    229 1
   342    246    231 1
   343    247    231 1
   344    248    232 1
   345    249    236 1
   346    250    241 1
   347    276    258 1
   348    277    258 1
   349    278    259 1
   350    279    261 1
   351    280    263 1
   352    281    263 1
   353    282    264 1
   354    283    266 1
   355    284    271 1
   356    308    291 1
   357    309    291 1
   358    310    292 1
   359    311    294 1
   360    312    296 1
   361    313    296 1
   362    314    297 1
   363    315    299 1
   364    316    305 1
   365    340    323 1
   366    341    323 1
   367    342    324 1
   368    343    326 1
   369    344    328 1
   370    345    328 1
   371    346    329 1
   372    347    331 1
   373    348    337 1
   374    371    355 1
   375    372    355 1
   376    373    356 1
   377    374    358 1
   378    375    360 1
   379    376    360 1
   380    377    361 1
   381    378    365 1
   382    379    370 1
   383    125    113 1
   384    126    113 1
   385    187    175 1
   386    188    175 1
   387    220    208 1
   388    221    208 1
   389    285    273 1
   390    286    273 1
   391     31     17 1
   392     32     17 1
   393    157    143 1
   394    158    143 1
   395    317    303 1
   396    318    303 1
   397    349    335 1
   398    350    335 1
   399     62     51 1
   400     63     51 1
   401     64     51 1
   402     94     83 1
   403     95     83 1
   404     96     83 1
   405    251    240 1
   406    252    240 1
   407    253    240 1
   408    380    369 1
   409    381    369 1
   410    382    369 1
   411    167    383 1
   412    189    997 1
   413    391    416 1
   414    424    448 1
   415    456    481 1
   416    489    513 1
   417    521    545 1
   418    553    577 1
   419    585    609 1
   420    617    639 1
   421    647    671 1
   422    709    734 1
   423    742    766 1
   424    774    799 1
   425    807    831 1
   426    839    863 1
   427    871    895 1
   428    903    927 1
   429    935    957 1
   430    965    989 1
   431    383    384 1
   432    383    385 1
   433    383    386 1
   434    386    387 1
   435    387    388 1
   436    388    389 1
   437    388    390 1
   438    389    393 1
   439    390    391 1
   440    390    392 1
   441    392    393 1
   442    393    394 1
   443    394    395 ar
   444    394    404 ar
   445    395    396 ar
   446    396    397 ar
   447    397    398 1
   448    397    404 ar
   449    398    399 2
   450    398    400 am
   451    400    401 1
   452    401    402 2
   453    401    403 2
   454    403    404 1
   455    416    417 1
   456    416    418 1
   457    416    419 1
   458    419    420 1
   459    420    421 1
   460    421    422 1
   461    421    423 1
   462    422    426 1
   463    423    424 1
   464    423    425 1
   465    425    426 1
   466    426    427 1
   467    427    428 am
   468    427    435 1
   469    428    429 2
   470    428    430 am
   471    430    431 am
   472    431    432 2
   473    431    433 1
   474    433    434 1
   475    433    435 2
   476    448    449 1
   477    448    450 1
   478    448    451 1
   479    451    452 1
   480    452    453 1
   481    453    454 1
   482    453    455 1
   483    454    458 1
   484    455    456 1
   485    455    457 1
   486    457    458 1
   487    458    459 1
   488    459    460 ar
   489    459    469 ar
   490    460    461 ar
   491    461    462 ar
   492    462    463 1
   493    462    469 ar
   494    463    464 2
   495    463    465 am
   496    465    466 1
   497    466    467 2
   498    466    468 2
   499    468    469 1
   500    481    482 1
   501    481    483 1
   502    481    484 1
   503    484    485 1
   504    485    486 1
   505    486    487 1
   506    486    488 1
   507    487    491 1
   508    488    489 1
   509    488    490 1
   510    490    491 1
   511    491    492 1
   512    492    493 ar
   513    492    501 ar
   514    493    494 ar
   515    494    495 ar
   516    495    496 ar
   517    495    501 ar
   518    496    497 1
   519    496    498 ar
   520    498    499 ar
   521    499    500 ar
   522    500    501 ar
   523    513    514 1
   524    513    515 1
   525    513    516 1
   526    516    517 1
   527    517    518 1
   528    518    519 1
   529    518    520 1
   530    519    523 1
   531    520    521 1
   532    520    522 1
   533    522    523 1
   534    523    524 1
   535    524    525 ar
   536    524    533 ar
   537    525    526 ar
   538    526    527 ar
   539    527    528 ar
   540    527    533 ar
   541    528    529 1
   542    528    530 ar
   543    530    531 ar
   544    531    532 ar
   545    532    533 ar
   546    545    546 1
   547    545    547 1
   548    545    548 1
   549    548    549 1
   550    549    550 1
   551    550    551 1
   552    550    552 1
   553    551    555 1
   554    552    553 1
   555    552    554 1
   556    554    555 1
   557    555    556 1
   558    556    557 am
   559    556    564 1
   560    557    558 2
   561    557    559 am
   562    559    560 am
   563    560    561 2
   564    560    562 1
   565    562    563 1
   566    562    564 2
   567    577    578 1
   568    577    579 1
   569    577    580 1
   570    580    581 1
   571    581    582 1
   572    582    583 1
   573    582    584 1
   574    583    587 1
   575    584    585 1
   576    584    586 1
   577    586    587 1
   578    587    588 1
   579    588    589 am
   580    588    596 1
   581    589    590 2
   582    589    591 am
   583    591    592 am
   584    592    593 2
   585    592    594 1
   586    594    595 1
   587    594    596 2
   588    609    610 1
   589    609    611 1
   590    609    612 1
   591    612    613 1
   592    613    614 1
   593    614    615 1
   594    614    616 1
   595    615    619 1
   596    616    617 1
   597    616    618 1
   598    618    619 1
   599    619    620 1
   600    620    621 am
   601    620    627 1
   602    621    622 2
   603    621    623 1
   604    623    624 2
   605    624    625 2
   606    624    626 2
   607    626    627 2
   608    639    640 1
   609    639    641 1
   610    639    642 1
   611    642    643 1
   612    643    644 1
   613    644    645 1
   614    644    646 1
   615    645    649 1
   616    646    647 1
   617    646    648 1
   618    648    649 1
   619    649    650 1
   620    650    651 ar
   621    650    659 ar
   622    651    652 ar
   623    652    653 ar
   624    653    654 ar
   625    653    659 ar
   626    654    655 1
   627    654    656 ar
   628    656    657 ar
   629    657    658 ar
   630    658    659 ar
   631    671    672 1
   632    671    673 1
   633    671    674 1
   634    674    675 1
   635    675    676 1
   636    676    677 1
   637    676    678 1
   638    677    681 1
   639    678    679 1
   640    678    680 1
   641    680    681 1
   642    681    682 1
   643    682    683 am
   644    682    689 1
   645    683    684 2
   646    683    685 1
   647    685    686 2
   648    686    687 2
   649    686    688 2
   650    688    689 2
   651    701    702 1
   652    701    703 1
   653    701    704 1
   654    704    705 1
   655    705    706 1
   656    706    707 1
   657    706    708 1
   658    707    711 1
   659    708    709 1
   660    708    710 1
   661    710    711 1
   662    711    712 1
   663    712    713 ar
   664    712    722 ar
   665    713    714 ar
   666    714    715 ar
   667    715    716 1
   668    715    722 ar
   669    716    717 2
   670    716    718 am
   671    718    719 1
   672    719    720 2
   673    719    721 2
   674    721    722 1
   675    734    735 1
   676    734    736 1
   677    734    737 1
   678    737    738 1
   679    738    739 1
   680    739    740 1
   681    739    741 1
   682    740    744 1
   683    741    742 1
   684    741    743 1
   685    743    744 1
   686    744    745 1
   687    745    746 am
   688    745    753 1
   689    746    747 2
   690    746    748 am
   691    748    749 am
   692    749    750 2
   693    749    751 1
   694    751    752 1
   695    751    753 2
   696    766    767 1
   697    766    768 1
   698    766    769 1
   699    769    770 1
   700    770    771 1
   701    771    772 1
   702    771    773 1
   703    772    776 1
   704    773    774 1
   705    773    775 1
   706    775    776 1
   707    776    777 1
   708    777    778 ar
   709    777    787 ar
   710    778    779 ar
   711    779    780 ar
   712    780    781 1
   713    780    787 ar
   714    781    782 2
   715    781    783 am
   716    783    784 1
   717    784    785 2
   718    784    786 2
   719    786    787 1
   720    799    800 1
   721    799    801 1
   722    799    802 1
   723    802    803 1
   724    803    804 1
   725    804    805 1
   726    804    806 1
   727    805    809 1
   728    806    807 1
   729    806    808 1
   730    808    809 1
   731    809    810 1
   732    810    811 ar
   733    810    819 ar
   734    811    812 ar
   735    812    813 ar
   736    813    814 ar
   737    813    819 ar
   738    814    815 1
   739    814    816 ar
   740    816    817 ar
   741    817    818 ar
   742    818    819 ar
   743    831    832 1
   744    831    833 1
   745    831    834 1
   746    834    835 1
   747    835    836 1
   748    836    837 1
   749    836    838 1
   750    837    841 1
   751    838    839 1
   752    838    840 1
   753    840    841 1
   754    841    842 1
   755    842    843 ar
   756    842    851 ar
   757    843    844 ar
   758    844    845 ar
   759    845    846 ar
   760    845    851 ar
   761    846    847 1
   762    846    848 ar
   763    848    849 ar
   764    849    850 ar
   765    850    851 ar
   766    863    864 1
   767    863    865 1
   768    863    866 1
   769    866    867 1
   770    867    868 1
   771    868    869 1
   772    868    870 1
   773    869    873 1
   774    870    871 1
   775    870    872 1
   776    872    873 1
   777    873    874 1
   778    874    875 am
   779    874    882 1
   780    875    876 2
   781    875    877 am
   782    877    878 am
   783    878    879 2
   784    878    880 1
   785    880    881 1
   786    880    882 2
   787    895    896 1
   788    895    897 1
   789    895    898 1
   790    898    899 1
   791    899    900 1
   792    900    901 1
   793    900    902 1
   794    901    905 1
   795    902    903 1
   796    902    904 1
   797    904    905 1
   798    905    906 1
   799    906    907 am
   800    906    914 1
   801    907    908 2
   802    907    909 am
   803    909    910 am
   804    910    911 2
   805    910    912 1
   806    912    913 1
   807    912    914 2
   808    927    928 1
   809    927    929 1
   810    927    930 1
   811    930    931 1
   812    931    932 1
   813    932    933 1
   814    932    934 1
   815    933    937 1
   816    934    935 1
   817    934    936 1
   818    936    937 1
   819    937    938 1
   820    938    939 am
   821    938    945 1
   822    939    940 2
   823    939    941 1
   824    941    942 2
   825    942    943 2
   826    942    944 2
   827    944    945 2
   828    957    958 1
   829    957    959 1
   830    957    960 1
   831    960    961 1
   832    961    962 1
   833    962    963 1
   834    962    964 1
   835    963    967 1
   836    964    965 1
   837    964    966 1
   838    966    967 1
   839    967    968 1
   840    968    969 ar
   841    968    977 ar
   842    969    970 ar
   843    970    971 ar
   844    971    972 ar
   845    971    977 ar
   846    972    973 1
   847    972    974 ar
   848    974    975 ar
   849    975    976 ar
   850    976    977 ar
   851    989    990 1
   852    989    991 1
   853    989    992 1
   854    992    993 1
   855    993    994 1
   856    994    995 1
   857    994    996 1
   858    995    999 1
   859    996    997 1
   860    996    998 1
   861    998    999 1
   862    999   1000 1
   863   1000   1001 am
   864   1000   1007 1
   865   1001   1002 2
   866   1001   1003 1
   867   1003   1004 2
   868   1004   1005 2
   869   1004   1006 2
   870   1006   1007 2
   871    405    387 1
   872    406    387 1
   873    407    388 1
   874    408    390 1
   875    409    392 1
   876    410    392 1
   877    411    393 1
   878    412    395 1
   879    413    400 1
   880    436    420 1
   881    437    420 1
   882    438    421 1
   883    439    423 1
   884    440    425 1
   885    441    425 1
   886    442    426 1
   887    443    430 1
   888    444    435 1
   889    470    452 1
   890    471    452 1
   891    472    453 1
   892    473    455 1
   893    474    457 1
   894    475    457 1
   895    476    458 1
   896    477    460 1
   897    478    465 1
   898    502    485 1
   899    503    485 1
   900    504    486 1
   901    505    488 1
   902    506    490 1
   903    507    490 1
   904    508    491 1
   905    509    493 1
   906    510    499 1
   907    534    517 1
   908    535    517 1
   909    536    518 1
   910    537    520 1
   911    538    522 1
   912    539    522 1
   913    540    523 1
   914    541    525 1
   915    542    531 1
   916    565    549 1
   917    566    549 1
   918    567    550 1
   919    568    552 1
   920    569    554 1
   921    570    554 1
   922    571    555 1
   923    572    559 1
   924    573    564 1
   925    597    581 1
   926    598    581 1
   927    599    582 1
   928    600    584 1
   929    601    586 1
   930    602    586 1
   931    603    587 1
   932    604    591 1
   933    605    596 1
   934    628    613 1
   935    629    613 1
   936    630    614 1
   937    631    616 1
   938    632    618 1
   939    633    618 1
   940    634    619 1
   941    635    626 1
   942    636    627 1
   943    660    643 1
   944    661    643 1
   945    662    644 1
   946    663    646 1
   947    664    648 1
   948    665    648 1
   949    666    649 1
   950    667    651 1
   951    668    657 1
   952    690    675 1
   953    691    675 1
   954    692    676 1
   955    693    678 1
   956    694    680 1
   957    695    680 1
   958    696    681 1
   959    697    688 1
   960    698    689 1
   961    723    705 1
   962    724    705 1
   963    725    706 1
   964    726    708 1
   965    727    710 1
   966    728    710 1
   967    729    711 1
   968    730    713 1
   969    731    718 1
   970    754    738 1
   971    755    738 1
   972    756    739 1
   973    757    741 1
   974    758    743 1
   975    759    743 1
   976    760    744 1
   977    761    748 1
   978    762    753 1
   979    788    770 1
   980    789    770 1
   981    790    771 1
   982    791    773 1
   983    792    775 1
   984    793    775 1
   985    794    776 1
   986    795    778 1
   987    796    783 1
   988    820    803 1
   989    821    803 1
   990    822    804 1
   991    823    806 1
   992    824    808 1
   993    825    808 1
   994    826    809 1
   995    827    811 1
   996    828    817 1
   997    852    835 1
   998    853    835 1
   999    854    836 1
  1000    855    838 1
  1001    856    840 1
  1002    857    840 1
  1003    858    841 1
  1004    859    843 1
  1005    860    849 1
  1006    883    867 1
  1007    884    867 1
  1008    885    868 1
  1009    886    870 1
  1010    887    872 1
  1011    888    872 1
  1012    889    873 1
  1013    890    877 1
  1014    891    882 1
  1015    915    899 1
  1016    916    899 1
  1017    917    900 1
  1018    918    902 1
  1019    919    904 1
  1020    920    904 1
  1021    921    905 1
  1022    922    909 1
  1023    923    914 1
  1024    946    931 1
  1025    947    931 1
  1026    948    932 1
  1027    949    934 1
  1028    950    936 1
  1029    951    936 1
  1030    952    937 1
  1031    953    944 1
  1032    954    945 1
  1033    978    961 1
  1034    979    961 1
  1035    980    962 1
  1036    981    964 1
  1037    982    966 1
  1038    983    966 1
  1039    984    967 1
  1040    985    969 1
  1041    986    975 1
  1042   1008    993 1
  1043   1009    993 1
  1044   1010    994 1
  1045   1011    996 1
  1046   1012    998 1
  1047   1013    998 1
  1048   1014    999 1
  1049   1015   1006 1
  1050   1016   1007 1
  1051    414    402 1
  1052    415    402 1
  1053    479    467 1
  1054    480    467 1
  1055    637    625 1
  1056    638    625 1
  1057    699    687 1
  1058    700    687 1
  1059    732    720 1
  1060    733    720 1
  1061    797    785 1
  1062    798    785 1
  1063    955    943 1
  1064    956    943 1
  1065   1017   1005 1
  1066   1018   1005 1
  1067    511    497 1
  1068    512    497 1
  1069    543    529 1
  1070    544    529 1
  1071    669    655 1
  1072    670    655 1
  1073    829    815 1
  1074    830    815 1
  1075    861    847 1
  1076    862    847 1
  1077    987    973 1
  1078    988    973 1
  1079    445    434 1
  1080    446    434 1
  1081    447    434 1
  1082    574    563 1
  1083    575    563 1
  1084    576    563 1
  1085    606    595 1
  1086    607    595 1
  1087    608    595 1
  1088    763    752 1
  1089    764    752 1
  1090    765    752 1
  1091    892    881 1
  1092    893    881 1
  1093    894    881 1
  1094    924    913 1
  1095    925    913 1
  1096    926    913 1
  1097    679   1019 1
  1098    701   1633 1
  1099   1027   1052 1
  1100   1060   1084 1
  1101   1092   1117 1
  1102   1125   1149 1
  1103   1157   1181 1
  1104   1189   1213 1
  1105   1221   1245 1
  1106   1253   1275 1
  1107   1283   1307 1
  1108   1345   1370 1
  1109   1378   1402 1
  1110   1410   1435 1
  1111   1443   1467 1
  1112   1475   1499 1
  1113   1507   1531 1
  1114   1539   1563 1
  1115   1571   1593 1
  1116   1601   1625 1
  1117   1019   1020 1
  1118   1019   1021 1
  1119   1019   1022 1
  1120   1022   1023 1
  1121   1023   1024 1
  1122   1024   1025 1
  1123   1024   1026 1
  1124   1025   1029 1
  1125   1026   1027 1
  1126   1026   1028 1
  1127   1028   1029 1
  1128   1029   1030 1
  1129   1030   1031 ar
  1130   1030   1040 ar
  1131   1031   1032 ar
  1132   1032   1033 ar
  1133   1033   1034 1
  1134   1033   1040 ar
  1135   1034   1035 2
  1136   1034   1036 am
  1137   1036   1037 1
  1138   1037   1038 2
  1139   1037   1039 2
  1140   1039   1040 1
  1141   1052   1053 1
  1142   1052   1054 1
  1143   1052   1055 1
  1144   1055   1056 1
  1145   1056   1057 1
  1146   1057   1058 1
  1147   1057   1059 1
  1148   1058   1062 1
  1149   1059   1060 1
  1150   1059   1061 1
  1151   1061   1062 1
  1152   1062   1063 1
  1153   1063   1064 am
  1154   1063   1071 1
  1155   1064   1065 2
  1156   1064   1066 am
  1157   1066   1067 am
  1158   1067   1068 2
  1159   1067   1069 1
  1160   1069   1070 1
  1161   1069   1071 2
  1162   1084   1085 1
  1163   1084   1086 1
  1164   1084   1087 1
  1165   1087   1088 1
  1166   1088   1089 1
  1167   1089   1090 1
  1168   1089   1091 1
  1169   1090   1094 1
  1170   1091   1092 1
  1171   1091   1093 1
  1172   1093   1094 1
  1173   1094   1095 1
  1174   1095   1096 ar
  1175   1095   1105 ar
  1176   1096   1097 ar
  1177   1097   1098 ar
  1178   1098   1099 1
  1179   1098   1105 ar
  1180   1099   1100 2
  1181   1099   1101 am
  1182   1101   1102 1
  1183   1102   1103 2
  1184   1102   1104 2
  1185   1104   1105 1
  1186   1117   1118 1
  1187   1117   1119 1
  1188   1117   1120 1
  1189   1120   1121 1
  1190   1121   1122 1
  1191   1122   1123 1
  1192   1122   1124 1
  1193   1123   1127 1
  1194   1124   1125 1
  1195   1124   1126 1
  1196   1126   1127 1
  1197   1127   1128 1
  1198   1128   1129 ar
  1199   1128   1137 ar
  1200   1129   1130 ar
  1201   1130   1131 ar
  1202   1131   1132 ar
  1203   1131   1137 ar
  1204   1132   1133 1
  1205   1132   1134 ar
  1206   1134   1135 ar
  1207   1135   1136 ar
  1208   1136   1137 ar
  1209   1149   1150 1
  1210   1149   1151 1
  1211   1149   1152 1
  1212   1152   1153 1
  1213   1153   1154 1
  1214   1154   1155 1
  1215   1154   1156 1
  1216   1155   1159 1
  1217   1156   1157 1
  1218   1156   1158 1
  1219   1158   1159 1
  1220   1159   1160 1
  1221   1160   1161 ar
  1222   1160   1169 ar
  1223   1161   1162 ar
  1224   1162   1163 ar
  1225   1163   1164 ar
  1226   1163   1169 ar
  1227   1164   1165 1
  1228   1164   1166 ar
  1229   1166   1167 ar
  1230   1167   1168 ar
  1231   1168   1169 ar
  1232   1181   1182 1
  1233   1181   1183 1
  1234   1181   1184 1
  1235   1184   1185 1
  1236   1185   1186 1
  1237   1186   1187 1
  1238   1186   1188 1
  1239   1187   1191 1
  1240   1188   1189 1
  1241   1188   1190 1
  1242   1190   1191 1
  1243   1191   1192 1
  1244   1192   1193 am
  1245   1192   1200 1
  1246   1193   1194 2
  1247   1193   1195 am
  1248   1195   1196 am
  1249   1196   1197 2
  1250   1196   1198 1
  1251   1198   1199 1
  1252   1198   1200 2
  1253   1213   1214 1
  1254   1213   1215 1
  1255   1213   1216 1
  1256   1216   1217 1
  1257   1217   1218 1
  1258   1218   1219 1
  1259   1218   1220 1
  1260   1219   1223 1
  1261   1220   1221 1
  1262   1220   1222 1
  1263   1222   1223 1
  1264   1223   1224 1
  1265   1224   1225 am
  1266   1224   1232 1
  1267   1225   1226 2
  1268   1225   1227 am
  1269   1227   1228 am
  1270   1228   1229 2
  1271   1228   1230 1
  1272   1230   1231 1
  1273   1230   1232 2
  1274   1245   1246 1
  1275   1245   1247 1
  1276   1245   1248 1
  1277   1248   1249 1
  1278   1249   1250 1
  1279   1250   1251 1
  1280   1250   1252 1
  1281   1251   1255 1
  1282   1252   1253 1
  1283   1252   1254 1
  1284   1254   1255 1
  1285   1255   1256 1
  1286   1256   1257 am
  1287   1256   1263 1
  1288   1257   1258 2
  1289   1257   1259 1
  1290   1259   1260 2
  1291   1260   1261 2
  1292   1260   1262 2
  1293   1262   1263 2
  1294   1275   1276 1
  1295   1275   1277 1
  1296   1275   1278 1
  1297   1278   1279 1
  1298   1279   1280 1
  1299   1280   1281 1
  1300   1280   1282 1
  1301   1281   1285 1
  1302   1282   1283 1
  1303   1282   1284 1
  1304   1284   1285 1
  1305   1285   1286 1
  1306   1286   1287 ar
  1307   1286   1295 ar
  1308   1287   1288 ar
  1309   1288   1289 ar
  1310   1289   1290 ar
  1311   1289   1295 ar
  1312   1290   1291 1
  1313   1290   1292 ar
  1314   1292   1293 ar
  1315   1293   1294 ar
  1316   1294   1295 ar
  1317   1307   1308 1
  1318   1307   1309 1
  1319   1307   1310 1
  1320   1310   1311 1
  1321   1311   1312 1
  1322   1312   1313 1
  1323   1312   1314 1
  1324   1313   1317 1
  1325   1314   1315 1
  1326   1314   1316 1
  1327   1316   1317 1
  1328   1317   1318 1
  1329   1318   1319 am
  1330   1318   1325 1
  1331   1319   1320 2
  1332   1319   1321 1
  1333   1321   1322 2
  1334   1322   1323 2
  1335   1322   1324 2
  1336   1324   1325 2
  1337   1337   1338 1
  1338   1337   1339 1
  1339   1337   1340 1
  1340   1340   1341 1
  1341   1341   1342 1
  1342   1342   1343 1
  1343   1342   1344 1
  1344   1343   1347 1
  1345   1344   1345 1
  1346   1344   1346 1
  1347   1346   1347 1
  1348   1347   1348 1
  1349   1348   1349 ar
  1350   1348   1358 ar
  1351   1349   1350 ar
  1352   1350   1351 ar
  1353   1351   1352 1
  1354   1351   1358 ar
  1355   1352   1353 2
  1356   1352   1354 am
  1357   1354   1355 1
  1358   1355   1356 2
  1359   1355   1357 2
  1360   1357   1358 1
  1361   1370   1371 1
  1362   1370   1372 1
  1363   1370   1373 1
  1364   1373   1374 1
  1365   1374   1375 1
  1366   1375   1376 1
  1367   1375   1377 1
  1368   1376   1380 1
  1369   1377   1378 1
  1370   1377   1379 1
  1371   1379   1380 1
  1372   1380   1381 1
  1373   1381   1382 am
  1374   1381   1389 1
  1375   1382   1383 2
  1376   1382   1384 am
  1377   1384   1385 am
  1378   1385   1386 2
  1379   1385   1387 1
  1380   1387   1388 1
  1381   1387   1389 2
  1382   1402   1403 1
  1383   1402   1404 1
  1384   1402   1405 1
  1385   1405   1406 1
  1386   1406   1407 1
  1387   1407   1408 1
  1388   1407   1409 1
  1389   1408   1412 1
  1390   1409   1410 1
  1391   1409   1411 1
  1392   1411   1412 1
  1393   1412   1413 1
  1394   1413   1414 ar
  1395   1413   1423 ar
  1396   1414   1415 ar
  1397   1415   1416 ar
  1398   1416   1417 1
  1399   1416   1423 ar
  1400   1417   1418 2
  1401   1417   1419 am
  1402   1419   1420 1
  1403   1420   1421 2
  1404   1420   1422 2
  1405   1422   1423 1
  1406   1435   1436 1
  1407   1435   1437 1
  1408   1435   1438 1
  1409   1438   1439 1
  1410   1439   1440 1
  1411   1440   1441 1
  1412   1440   1442 1
  1413   1441   1445 1
  1414   1442   1443 1
  1415   1442   1444 1
  1416   1444   1445 1
  1417   1445   1446 1
  1418   1446   1447 ar
  1419   1446   1455 ar
  1420   1447   1448 ar
  1421   1448   1449 ar
  1422   1449   1450 ar
  1423   1449   1455 ar
  1424   1450   1451 1
  1425   1450   1452 ar
  1426   1452   1453 ar
  1427   1453   1454 ar
  1428   1454   1455 ar
  1429   1467   1468 1
  1430   1467   1469 1
  1431   1467   1470 1
  1432   1470   1471 1
  1433   1471   1472 1
  1434   1472   1473 1
  1435   1472   1474 1
  1436   1473   1477 1
  1437   1474   1475 1
  1438   1474   1476 1
  1439   1476   1477 1
  1440   1477   1478 1
  1441   1478   1479 ar
  1442   1478   1487 ar
  1443   1479   1480 ar
  1444   1480   1481 ar
  1445   1481   1482 ar
  1446   1481   1487 ar
  1447   1482   1483 1
  1448   1482   1484 ar
  1449   1484   1485 ar
  1450   1485   1486 ar
  1451   1486   1487 ar
  1452   1499   1500 1
  1453   1499   1501 1
  1454   1499   1502 1
  1455   1502   1503 1
  1456   1503   1504 1
  1457   1504   1505 1
  1458   1504   1506 1
  1459   1505   1509 1
  1460   1506   1507 1
  1461   1506   1508 1
  1462   1508   1509 1
  1463   1509   1510 1
  1464   1510   1511 am
  1465   1510   1518 1
  1466   1511   1512 2
  1467   1511   1513 am
  1468   1513   1514 am
  1469   1514   1515 2
  1470   1514   1516 1
  1471   1516   1517 1
  1472   1516   1518 2
  1473   1531   1532 1
  1474   1531   1533 1
  1475   1531   1534 1
  1476   1534   1535 1
  1477   1535   1536 1
  1478   1536   1537 1
  1479   1536   1538 1
  1480   1537   1541 1
  1481   1538   1539 1
  1482   1538   1540 1
  1483   1540   1541 1
  1484   1541   1542 1
  1485   1542   1543 am
  1486   1542   1550 1
  1487   1543   1544 2
  1488   1543   1545 am
  1489   1545   1546 am
  1490   1546   1547 2
  1491   1546   1548 1
  1492   1548   1549 1
  1493   1548   1550 2
  1494   1563   1564 1
  1495   1563   1565 1
  1496   1563   1566 1
  1497   1566   1567 1
  1498   1567   1568 1
  1499   1568   1569 1
  1500   1568   1570 1
  1501   1569   1573 1
  1502   1570   1571 1
  1503   1570   1572 1
  1504   1572   1573 1
  1505   1573   1574 1
  1506   1574   1575 am
  1507   1574   1581 1
  1508   1575   1576 2
  1509   1575   1577 1
  1510   1577   1578 2
  1511   1578   1579 2
  1512   1578   1580 2
  1513   1580   1581 2
  1514   1593   1594 1
  1515   1593   1595 1
  1516   1593   1596 1
  1517   1596   1597 1
  1518   1597   1598 1
  1519   1598   1599 1
  1520   1598   1600 1
  1521   1599   1603 1
  1522   1600   1601 1
  1523   1600   1602 1
  1524   1602   1603 1
  1525   1603   1604 1
  1526   1604   1605 ar
  1527   1604   1613 ar
  1528   1605   1606 ar
  1529   1606   1607 ar
  1530   1607   1608 ar
  1531   1607   1613 ar
  1532   1608   1609 1
  1533   1608   1610 ar
  1534   1610   1611 ar
  1535   1611   1612 ar
  1536   1612   1613 ar
  1537   1625   1626 1
  1538   1625   1627 1
  1539   1625   1628 1
  1540   1628   1629 1
  1541   1629   1630 1
  1542   1630   1631 1
  1543   1630   1632 1
  1544   1631   1635 1
  1545   1632   1633 1
  1546   1632   1634 1
  1547   1634   1635 1
  1548   1635   1636 1
  1549   1636   1637 am
  1550   1636   1643 1
  1551   1637   1638 2
  1552   1637   1639 1
  1553   1639   1640 2
  1554   1640   1641 2
  1555   1640   1642 2
  1556   1642   1643 2
  1557   1041   1023 1
  1558   1042   1023 1
  1559   1043   1024 1
  1560   1044   1026 1
  1561   1045   1028 1
  1562   1046   1028 1
  1563   1047   1029 1
  1564   1048   1031 1
  1565   1049   1036 1
  1566   1072   1056 1
  1567   1073   1056 1
  1568   1074   1057 1
  1569   1075   1059 1
  1570   1076   1061 1
  1571   1077   1061 1
  1572   1078   1062 1
  1573   1079   1066 1
  1574   1080   1071 1
  1575   1106   1088 1
  1576   1107   1088 1
  1577   1108   1089 1
  1578   1109   1091 1
  1579   1110   1093 1
  1580   1111   1093 1
  1581   1112   1094 1
  1582   1113   1096 1
  1583   1114   1101 1
  1584   1138   1121 1
  1585   1139   1121 1
  1586   1140   1122 1
  1587   1141   1124 1
  1588   1142   1126 1
  1589   1143   1126 1
  1590   1144   1127 1
  1591   1145   1129 1
  1592   1146   1135 1
  1593   1170   1153 1
  1594   1171   1153 1
  1595   1172   1154 1
  1596   1173   1156 1
  1597   1174   1158 1
  1598   1175   1158 1
  1599   1176   1159 1
  1600   1177   1161 1
  1601   1178   1167 1
  1602   1201   1185 1
  1603   1202   1185 1
  1604   1203   1186 1
  1605   1204   1188 1
  1606   1205   1190 1
  1607   1206   1190 1
  1608   1207   1191 1
  1609   1208   1195 1
  1610   1209   1200 1
  1611   1233   1217 1
  1612   1234   1217 1
  1613   1235   1218 1
  1614   1236   1220 1
  1615   1237   1222 1
  1616   1238   1222 1
  1617   1239   1223 1
  1618   1240   1227 1
  1619   1241   1232 1
  1620   1264   1249 1
  1621   1265   1249 1
  1622   1266   1250 1
  1623   1267   1252 1
  1624   1268   1254 1
  1625   1269   1254 1
  1626   1270   1255 1
  1627   1271   1262 1
  1628   1272   1263 1
  1629   1296   1279 1
  1630   1297   1279 1
  1631   1298   1280 1
  1632   1299   1282 1
  1633   1300   1284 1
  1634   1301   1284 1
  1635   1302   1285 1
  1636   1303   1287 1
  1637   1304   1293 1
  1638   1326   1311 1
  1639   1327   1311 1
  1640   1328   1312 1
  1641   1329   1314 1
  1642   1330   1316 1
  1643   1331   1316 1
  1644   1332   1317 1
  1645   1333   1324 1
  1646   1334   1325 1
  1647   1359   1341 1
  1648   1360   1341 1
  1649   1361   1342 1
  1650   1362   1344 1
  1651   1363   1346 1
  1652   1364   1346 1
  1653   1365   1347 1
  1654   1366   1349 1
  1655   1367   1354 1
  1656   1390   1374 1
  1657   1391   1374 1
  1658   1392   1375 1
  1659   1393   1377 1
  1660   1394   1379 1
  1661   1395   1379 1
  1662   1396   1380 1
  1663   1397   1384 1
  1664   1398   1389 1
  1665   1424   1406 1
  1666   1425   1406 1
  1667   1426   1407 1
  1668   1427   1409 1
  1669   1428   1411 1
  1670   1429   1411 1
  1671   1430   1412 1
  1672   1431   1414 1
  1673   1432   1419 1
  1674   1456   1439 1
  1675   1457   1439 1
  1676   1458   1440 1
  1677   1459   1442 1
  1678   1460   1444 1
  1679   1461   1444 1
  1680   1462   1445 1
  1681   1463   1447 1
  1682   1464   1453 1
  1683   1488   1471 1
  1684   1489   1471 1
  1685   1490   1472 1
  1686   1491   1474 1
  1687   1492   1476 1
  1688   1493   1476 1
  1689   1494   1477 1
  1690   1495   1479 1
  1691   1496   1485 1
  1692   1519   1503 1
  1693   1520   1503 1
  1694   1521   1504 1
  1695   1522   1506 1
  1696   1523   1508 1
  1697   1524   1508 1
  1698   1525   1509 1
  1699   1526   1513 1
  1700   1527   1518 1
  1701   1551   1535 1
  1702   1552   1535 1
  1703   1553   1536 1
  1704   1554   1538 1
  1705   1555   1540 1
  1706   1556   1540 1
  1707   1557   1541 1
  1708   1558   1545 1
  1709   1559   1550 1
  1710   1582   1567 1
  1711   1583   1567 1
  1712   1584   1568 1
  1713   1585   1570 1
  1714   1586   1572 1
  1715   1587   1572 1
  1716   1588   1573 1
  1717   1589   1580 1
  1718   1590   1581 1
  1719   1614   1597 1
  1720   1615   1597 1
  1721   1616   1598 1
  1722   1617   1600 1
  1723   1618   1602 1
  1724   1619   1602 1
  1725   1620   1603 1
  1726   1621   1605 1
  1727   1622   1611 1
  1728   1644   1629 1
  1729   1645   1629 1
  1730   1646   1630 1
  1731   1647   1632 1
  1732   1648   1634 1
  1733   1649   1634 1
  1734   1650   1635 1
  1735   1651   1642 1
  1736   1652   1643 1
  1737   1050   1038 1
  1738   1051   1038 1
  1739   1115   1103 1
  1740   1116   1103 1
  1741   1273   1261 1
  1742   1274   1261 1
  1743   1335   1323 1
  1744   1336   1323 1
  1745   1368   1356 1
  1746   1369   1356 1
  1747   1433   1421 1
  1748   1434   1421 1
  1749   1591   1579 1
  1750   1592   1579 1
  1751   1653   1641 1
  1752   1654   1641 1
  1753   1147   1133 1
  1754   1148   1133 1
  1755   1179   1165 1
  1756   1180   1165 1
  1757   1305   1291 1
  1758   1306   1291 1
  1759   1465   1451 1
  1760   1466   1451 1
  1761   1497   1483 1
  1762   1498   1483 1
  1763   1623   1609 1
  1764   1624   1609 1
  1765   1081   1070 1
  1766   1082   1070 1
  1767   1083   1070 1
  1768   1210   1199 1
  1769   1211   1199 1
  1770   1212   1199 1
  1771   1242   1231 1
  1772   1243   1231 1
  1773   1244   1231 1
  1774   1399   1388 1
  1775   1400   1388 1
  1776   1401   1388 1
  1777   1528   1517 1
  1778   1529   1517 1
  1779   1530   1517 1
  1780   1560   1549 1
  1781   1561   1549 1
  1782   1562   1549 1
  1783   1315   1655 1
  1784   1337   2079 1
  1785   1663   1688 1
  1786   1696   1720 1
  1787   1728   1753 1
  1788   1761   1785 1
  1789   1793   1817 1
  1790   1825   1849 1
  1791   1889   1913 1
  1792   1921   1945 1
  1793   1953   1977 1
  1794   1985   2009 1
  1795   2017   2039 1
  1796   2047   2071 1
  1797   1655   1656 1
  1798   1655   1657 1
  1799   1655   1658 1
  1800   1658   1659 1
  1801   1659   1660 1
  1802   1660   1661 1
  1803   1660   1662 1
  1804   1661   1665 1
  1805   1662   1663 1
  1806   1662   1664 1
  1807   1664   1665 1
  1808   1665   1666 1
  1809   1666   1667 ar
  1810   1666   1676 ar
  1811   1667   1668 ar
  1812   1668   1669 ar
  1813   1669   1670 1
  1814   1669   1676 ar
  1815   1670   1671 2
  1816   1670   1672 am
  1817   1672   1673 1
  1818   1673   1674 2
  1819   1673   1675 2
  1820   1675   1676 1
  1821   1688   1689 1
  1822   1688   1690 1
  1823   1688   1691 1
  1824   1691   1692 1
  1825   1692   1693 1
  1826   1693   1694 1
  1827   1693   1695 1
  1828   1694   1698 1
  1829   1695   1696 1
  1830   1695   1697 1
  1831   1697   1698 1
  1832   1698   1699 1
  1833   1699   1700 am
  1834   1699   1707 1
  1835   1700   1701 2
  1836   1700   1702 am
  1837   1702   1703 am
  1838   1703   1704 2
  1839   1703   1705 1
  1840   1705   1706 1
  1841   1705   1707 2
  1842   1720   1721 1
  1843   1720   1722 1
  1844   1720   1723 1
  1845   1723   1724 1
  1846   1724   1725 1
  1847   1725   1726 1
  1848   1725   1727 1
  1849   1726   1730 1
  1850   1727   1728 1
  1851   1727   1729 1
  1852   1729   1730 1
  1853   1730   1731 1
  1854   1731   1732 ar
  1855   1731   1741 ar
  1856   1732   1733 ar
  1857   1733   1734 ar
  1858   1734   1735 1
  1859   1734   1741 ar
  1860   1735   1736 2
  1861   1735   1737 am
  1862   1737   1738 1
  1863   1738   1739 2
  1864   1738   1740 2
  1865   1740   1741 1
  1866   1753   1754 1
  1867   1753   1755 1
  1868   1753   1756 1
  1869   1756   1757 1
  1870   1757   1758 1
  1871   1758   1759 1
  1872   1758   1760 1
  1873   1759   1763 1
  1874   1760   1761 1
  1875   1760   1762 1
  1876   1762   1763 1
  1877   1763   1764 1
  1878   1764   1765 ar
  1879   1764   1773 ar
  1880   1765   1766 ar
  1881   1766   1767 ar
  1882   1767   1768 ar
  1883   1767   1773 ar
  1884   1768   1769 1
  1885   1768   1770 ar
  1886   1770   1771 ar
  1887   1771   1772 ar
  1888   1772   1773 ar
  1889   1785   1786 1
  1890   1785   1787 1
  1891   1785   1788 1
  1892   1788   1789 1
  1893   1789   1790 1
  1894   1790   1791 1
  1895   1790   1792 1
  1896   1791   1795 1
  1897   1792   1793 1
  1898   1792   1794 1
  1899   1794   1795 1
  1900   1795   1796 1
  1901   1796   1797 ar
  1902   1796   1805 ar
  1903   1797   1798 ar
  1904   1798   1799 ar
  1905   1799   1800 ar
  1906   1799   1805 ar
  1907   1800   1801 1
  1908   1800   1802 ar
  1909   1802   1803 ar
  1910   1803   1804 ar
  1911   1804   1805 ar
  1912   1817   1818 1
  1913   1817   1819 1
  1914   1817   1820 1
  1915   1820   1821 1
  1916   1821   1822 1
  1917   1822   1823 1
  1918   1822   1824 1
  1919   1823   1827 1
  1920   1824   1825 1
  1921   1824   1826 1
  1922   1826   1827 1
  1923   1827   1828 1
  1924   1828   1829 am
  1925   1828   1836 1
  1926   1829   1830 2
  1927   1829   1831 am
  1928   1831   1832 am
  1929   1832   1833 2
  1930   1832   1834 1
  1931   1834   1835 1
  1932   1834   1836 2
  1933   1849   1850 1
  1934   1849   1851 1
  1935   1849   1852 1
  1936   1852   1853 1
  1937   1853   1854 1
  1938   1854   1855 1
  1939   1854   1856 1
  1940   1855   1859 1
  1941   1856   1857 1
  1942   1856   1858 1
  1943   1858   1859 1
  1944   1859   1860 1
  1945   1860   1861 am
  1946   1860   1868 1
  1947   1861   1862 2
  1948   1861   1863 am
  1949   1863   1864 am
  1950   1864   1865 2
  1951   1864   1866 1
  1952   1866   1867 1
  1953   1866   1868 2
  1954   1881   1882 1
  1955   1881   1883 1
  1956   1881   1884 1
  1957   1884   1885 1
  1958   1885   1886 1
  1959   1886   1887 1
  1960   1886   1888 1
  1961   1887   1891 1
  1962   1888   1889 1
  1963   1888   1890 1
  1964   1890   1891 1
  1965   1891   1892 1
  1966   1892   1893 ar
  1967   1892   1901 ar
  1968   1893   1894 ar
  1969   1894   1895 ar
  1970   1895   1896 ar
  1971   1895   1901 ar
  1972   1896   1897 1
  1973   1896   1898 ar
  1974   1898   1899 ar
  1975   1899   1900 ar
  1976   1900   1901 ar
  1977   1913   1914 1
  1978   1913   1915 1
  1979   1913   1916 1
  1980   1916   1917 1
  1981   1917   1918 1
  1982   1918   1919 1
  1983   1918   1920 1
  1984   1919   1923 1
  1985   1920   1921 1
  1986   1920   1922 1
  1987   1922   1923 1
  1988   1923   1924 1
  1989   1924   1925 ar
  1990   1924   1933 ar
  1991   1925   1926 ar
  1992   1926   1927 ar
  1993   1927   1928 ar
  1994   1927   1933 ar
  1995   1928   1929 1
  1996   1928   1930 ar
  1997   1930   1931 ar
  1998   1931   1932 ar
  1999   1932   1933 ar
  2000   1945   1946 1
  2001   1945   1947 1
  2002   1945   1948 1
  2003   1948   1949 1
  2004   1949   1950 1
  2005   1950   1951 1
  2006   1950   1952 1
  2007   1951   1955 1
  2008   1952   1953 1
  2009   1952   1954 1
  2010   1954   1955 1
  2011   1955   1956 1
  2012   1956   1957 am
  2013   1956   1964 1
  2014   1957   1958 2
  2015   1957   1959 am
  2016   1959   1960 am
  2017   1960   1961 2
  2018   1960   1962 1
  2019   1962   1963 1
  2020   1962   1964 2
  2021   1977   1978 1
  2022   1977   1979 1
  2023   1977   1980 1
  2024   1980   1981 1
  2025   1981   1982 1
  2026   1982   1983 1
  2027   1982   1984 1
  2028   1983   1987 1
  2029   1984   1985 1
  2030   1984   1986 1
  2031   1986   1987 1
  2032   1987   1988 1
  2033   1988   1989 am
  2034   1988   1996 1
  2035   1989   1990 2
  2036   1989   1991 am
  2037   1991   1992 am
  2038   1992   1993 2
  2039   1992   1994 1
  2040   1994   1995 1
  2041   1994   1996 2
  2042   2009   2010 1
  2043   2009   2011 1
  2044   2009   2012 1
  2045   2012   2013 1
  2046   2013   2014 1
  2047   2014   2015 1
  2048   2014   2016 1
  2049   2015   2019 1
  2050   2016   2017 1
  2051   2016   2018 1
  2052   2018   2019 1
  2053   2019   2020 1
  2054   2020   2021 am
  2055   2020   2027 1
  2056   2021   2022 2
  2057   2021   2023 1
  2058   2023   2024 2
  2059   2024   2025 2
  2060   2024   2026 2
  2061   2026   2027 2
  2062   2039   2040 1
  2063   2039   2041 1
  2064   2039   2042 1
  2065   2042   2043 1
  2066   2043   2044 1
  2067   2044   2045 1
  2068   2044   2046 1
  2069   2045   2049 1
  2070   2046   2047 1
  2071   2046   2048 1
  2072   2048   2049 1
  2073   2049   2050 1
  2074   2050   2051 ar
  2075   2050   2059 ar
  2076   2051   2052 ar
  2077   2052   2053 ar
  2078   2053   2054 ar
  2079   2053   2059 ar
  2080   2054   2055 1
  2081   2054   2056 ar
  2082   2056   2057 ar
  2083   2057   2058 ar
  2084   2058   2059 ar
  2085   2071   2072 1
  2086   2071   2073 1
  2087   2071   2074 1
  2088   2074   2075 1
  2089   2075   2076 1
  2090   2076   2077 1
  2091   2076   2078 1
  2092   2077   2081 1
  2093   2078   2079 1
  2094   2078   2080 1
  2095   2080   2081 1
  2096   2081   2082 1
  2097   2082   2083 am
  2098   2082   2089 1
  2099   2083   2084 2
  2100   2083   2085 1
  2101   2085   2086 2
  2102   2086   2087 2
  2103   2086   2088 2
  2104   2088   2089 2
  2105   1677   1659 1
  2106   1678   1659 1
  2107   1679   1660 1
  2108   1680   1662 1
  2109   1681   1664 1
  2110   1682   1664 1
  2111   1683   1665 1
  2112   1684   1667 1
  2113   1685   1672 1
  2114   1708   1692 1
  2115   1709   1692 1
  2116   1710   1693 1
  2117   1711   1695 1
  2118   1712   1697 1
  2119   1713   1697 1
  2120   1714   1698 1
  2121   1715   1702 1
  2122   1716   1707 1
  2123   1742   1724 1
  2124   1743   1724 1
  2125   1744   1725 1
  2126   1745   1727 1
  2127   1746   1729 1
  2128   1747   1729 1
  2129   1748   1730 1
  2130   1749   1732 1
  2131   1750   1737 1
  2132   1774   1757 1
  2133   1775   1757 1
  2134   1776   1758 1
  2135   1777   1760 1
  2136   1778   1762 1
  2137   1779   1762 1
  2138   1780   1763 1
  2139   1781   1765 1
  2140   1782   1771 1
  2141   1806   1789 1
  2142   1807   1789 1
  2143   1808   1790 1
  2144   1809   1792 1
  2145   1810   1794 1
  2146   1811   1794 1
  2147   1812   1795 1
  2148   1813   1797 1
  2149   1814   1803 1
  2150   1837   1821 1
  2151   1838   1821 1
  2152   1839   1822 1
  2153   1840   1824 1
  2154   1841   1826 1
  2155   1842   1826 1
  2156   1843   1827 1
  2157   1844   1831 1
  2158   1845   1836 1
  2159   1869   1853 1
  2160   1870   1853 1
  2161   1871   1854 1
  2162   1872   1856 1
  2163   1873   1858 1
  2164   1874   1858 1
  2165   1875   1859 1
  2166   1876   1863 1
  2167   1877   1868 1
  2168   1902   1885 1
  2169   1903   1885 1
  2170   1904   1886 1
  2171   1905   1888 1
  2172   1906   1890 1
  2173   1907   1890 1
  2174   1908   1891 1
  2175   1909   1893 1
  2176   1910   1899 1
  2177   1934   1917 1
  2178   1935   1917 1
  2179   1936   1918 1
  2180   1937   1920 1
  2181   1938   1922 1
  2182   1939   1922 1
  2183   1940   1923 1
  2184   1941   1925 1
  2185   1942   1931 1
  2186   1965   1949 1
  2187   1966   1949 1
  2188   1967   1950 1
  2189   1968   1952 1
  2190   1969   1954 1
  2191   1970   1954 1
  2192   1971   1955 1
  2193   1972   1959 1
  2194   1973   1964 1
  2195   1997   1981 1
  2196   1998   1981 1
  2197   1999   1982 1
  2198   2000   1984 1
  2199   2001   1986 1
  2200   2002   1986 1
  2201   2003   1987 1
  2202   2004   1991 1
  2203   2005   1996 1
  2204   2028   2013 1
  2205   2029   2013 1
  2206   2030   2014 1
  2207   2031   2016 1
  2208   2032   2018 1
  2209   2033   2018 1
  2210   2034   2019 1
  2211   2035   2026 1
  2212   2036   2027 1
  2213   2060   2043 1
  2214   2061   2043 1
  2215   2062   2044 1
  2216   2063   2046 1
  2217   2064   2048 1
  2218   2065   2048 1
  2219   2066   2049 1
  2220   2067   2051 1
  2221   2068   2057 1
  2222   2090   2075 1
  2223   2091   2075 1
  2224   2092   2076 1
  2225   2093   2078 1
  2226   2094   2080 1
  2227   2095   2080 1
  2228   2096   2081 1
  2229   2097   2088 1
  2230   2098   2089 1
  2231   1686   1674 1
  2232   1687   1674 1
  2233   1751   1739 1
  2234   1752   1739 1
  2235   2037   2025 1
  2236   2038   2025 1
  2237   2099   2087 1
  2238   2100   2087 1
  2239   1783   1769 1
  2240   1784   1769 1
  2241   1815   1801 1
  2242   1816   1801 1
  2243   1911   1897 1
  2244   1912   1897 1
  2245   1943   1929 1
  2246   1944   1929 1
  2247   2069   2055 1
  2248   2070   2055 1
  2249   1717   1706 1
  2250   1718   1706 1
  2251   1719   1706 1
  2252   1846   1835 1
  2253   1847   1835 1
  2254   1848   1835 1
  2255   1878   1867 1
  2256   1879   1867 1
  2257   1880   1867 1
  2258   1974   1963 1
  2259   1975   1963 1
  2260   1976   1963 1
  2261   2006   1995 1
  2262   2007   1995 1
  2263   2008   1995 1
@<TRIPOS>MOLECULE
dna-seg-20-bp33
2098 2261 1 0 0
BIOPOLYMER
NO_CHARGES


@<TRIPOS>ATOM
      1 P         -2.9041     8.6508  2178.3959 P.3      668 DC      0.0000
      2 OP1       -3.8995     9.0616  2177.3280 O.co2    668 DC      0.0000
      3 OP2       -2.2584     9.7537  2179.1309 O.co2    668 DC      0.0000
      4 O5'       -3.5932     7.4248  2179.2219 O.3      668 DC      0.0000
      5 C5'       -3.7693     6.3763  2178.1997 C.3      668 DC      0.0000
      6 C4'       -4.3380     5.1730  2178.8962 C.3      668 DC      0.0000
      7 O4'       -3.3787     4.1923  2179.1431 O.3      668 DC      0.0000
      8 C3'       -5.0922     5.4690  2180.1876 C.3      668 DC      0.0000
      9 O3'       -6.4209     4.9702  2180.1079 O.3      668 DC      0.0000
     10 C2'       -4.1543     4.8673  2181.2364 C.3      668 DC      0.0000
     11 C1'       -3.4749     3.7555  2180.5400 C.3      668 DC      0.0000
     12 N1        -2.0661     3.5210  2180.8721 N.am     668 DC      0.0000
     13 C2        -1.7134     2.1977  2181.1279 C.2      668 DC      0.0000
     14 O2        -2.5579     1.2968  2181.1324 O.2      668 DC      0.0000
     15 N3        -0.3935     1.9365  2181.4017 N.2      668 DC      0.0000
     16 C4         0.5452     2.9259  2181.3918 C.2      668 DC      0.0000
     17 N4         1.7957     2.5731  2181.6687 N.pl3    668 DC      0.0000
     18 C5         0.1756     4.2603  2181.1138 C.2      668 DC      0.0000
     19 C6        -1.1249     4.5010  2180.8490 C.2      668 DC      0.0000
     20 H5'       -4.4560     6.7199  2177.4260 H        668 DC      0.0000
     21 H5''      -2.8059     6.1264  2177.7554 H        668 DC      0.0000
     22 H4'       -5.0613     4.7320  2178.2102 H        668 DC      0.0000
     23 H3'       -5.1313     6.5488  2180.3309 H        668 DC      0.0000
     24 H2'       -3.4301     5.6085  2181.5743 H        668 DC      0.0000
     25 H2''      -4.7281     4.4880  2182.0819 H        668 DC      0.0000
     26 H1'       -4.0524     2.8346  2180.6209 H        668 DC      0.0000
     27 H5         0.9053     5.0565  2181.1132 H        668 DC      0.0000
     28 H6        -1.4294     5.5092  2180.6100 H        668 DC      0.0000
     29 H41        2.0157     1.6077  2181.8679 H        668 DC      0.0000
     30 H42        2.5264     3.2703  2181.6800 H        668 DC      0.0000
     31 P         -7.6651     5.3931  2181.0600 P.3      669 DA      0.0000
     32 OP1       -8.9340     5.1479  2180.2663 O.co2    669 DA      0.0000
     33 OP2       -7.5046     6.8203  2181.4055 O.co2    669 DA      0.0000
     34 O5'       -7.5314     4.3892  2182.3570 O.3      669 DA      0.0000
     35 C5'       -7.4398     2.9617  2182.0618 C.3      669 DA      0.0000
     36 C4'       -7.2228     2.1821  2183.3170 C.3      669 DA      0.0000
     37 O4'       -5.8695     1.7858  2183.5592 O.3      669 DA      0.0000
     38 C3'       -7.5862     2.9096  2184.6223 C.3      669 DA      0.0000
     39 O3'       -7.7656     1.9348  2185.6522 O.3      669 DA      0.0000
     40 C2'       -6.2818     3.7031  2184.8369 C.3      669 DA      0.0000
     41 C1'       -5.3256     2.5197  2184.6536 C.3      669 DA      0.0000
     42 N9        -3.9630     3.0157  2184.5593 N.ar     669 DA      0.0000
     43 C8        -3.4858     4.2919  2184.4434 C.ar     669 DA      0.0000
     44 N7        -2.1690     4.3957  2184.4249 N.ar     669 DA      0.0000
     45 C5        -1.7466     3.0782  2184.5324 C.ar     669 DA      0.0000
     46 C6        -0.4558     2.4952  2184.5669 C.ar     669 DA      0.0000
     47 N6         0.6748     3.1730  2184.4816 N.pl3    669 DA      0.0000
     48 N1        -0.4129     1.1368  2184.6995 N.ar     669 DA      0.0000
     49 C2        -1.5609     0.3944  2184.7797 C.ar     669 DA      0.0000
     50 N3        -2.8044     0.8676  2184.7498 N.ar     669 DA      0.0000
     51 C4        -2.8280     2.2174  2184.6268 C.ar     669 DA      0.0000
     52 H5'       -8.3660     2.6327  2181.5906 H        669 DA      0.0000
     53 H5''      -6.6070     2.7872  2181.3805 H        669 DA      0.0000
     54 H4'       -7.8298     1.2787  2183.2582 H        669 DA      0.0000
     55 H3'       -8.4541     3.5591  2184.5086 H        669 DA      0.0000
     56 H2'       -6.1357     4.4796  2184.0861 H        669 DA      0.0000
     57 H2''      -6.2240     4.1093  2185.8468 H        669 DA      0.0000
     58 H1'       -5.3931     1.8937  2185.5432 H        669 DA      0.0000
     59 H8        -4.1367     5.1508  2184.3725 H        669 DA      0.0000
     60 H2        -1.4463    -0.6752  2184.8761 H        669 DA      0.0000
     61 H61        1.6435     2.9509  2184.6617 H        669 DA      0.0000
     62 H62        0.5409     4.1233  2184.1669 H        669 DA      0.0000
     63 P         -9.1305     1.1115  2185.7927 P.3      670 DC      0.0000
     64 OP1       -9.9496     1.1151  2184.5476 O.co2    670 DC      0.0000
     65 OP2       -9.8071     1.8117  2186.9356 O.co2    670 DC      0.0000
     66 O5'       -8.6360    -0.3683  2186.0758 O.3      670 DC      0.0000
     67 C5'       -8.2229    -1.2498  2184.9881 C.3      670 DC      0.0000
     68 C4'       -7.2016    -2.1497  2185.6931 C.3      670 DC      0.0000
     69 O4'       -6.0833    -1.3518  2186.0051 O.3      670 DC      0.0000
     70 C3'       -7.7085    -2.7474  2187.0030 C.3      670 DC      0.0000
     71 O3'       -7.5371    -4.1812  2187.0709 O.3      670 DC      0.0000
     72 C2'       -6.9244    -1.9899  2188.0852 C.3      670 DC      0.0000
     73 C1'       -5.6464    -1.6983  2187.4090 C.3      670 DC      0.0000
     74 N1        -4.8466    -0.5282  2187.7618 N.am     670 DC      0.0000
     75 C2        -3.4671    -0.7239  2187.7349 C.2      670 DC      0.0000
     76 O2        -2.9582    -1.8184  2187.5280 O.2      670 DC      0.0000
     77 N3        -2.6779     0.3545  2187.9881 N.2      670 DC      0.0000
     78 C4        -3.1856     1.5890  2188.2214 C.2      670 DC      0.0000
     79 N4        -2.3113     2.5666  2188.4523 N.pl3    670 DC      0.0000
     80 C5        -4.5949     1.7788  2188.2280 C.2      670 DC      0.0000
     81 C6        -5.3673     0.7101  2187.9785 C.2      670 DC      0.0000
     82 H5'       -9.0633    -1.8274  2184.6033 H        670 DC      0.0000
     83 H5''      -7.7483    -0.6801  2184.1891 H        670 DC      0.0000
     84 H4'       -6.8991    -2.9522  2185.0204 H        670 DC      0.0000
     85 H3'       -8.7681    -2.5147  2187.1089 H        670 DC      0.0000
     86 H2'       -7.4365    -1.0715  2188.3722 H        670 DC      0.0000
     87 H2''      -6.7610    -2.6255  2188.9555 H        670 DC      0.0000
     88 H1'       -5.0190    -2.5895  2187.3958 H        670 DC      0.0000
     89 H5        -5.0280     2.7481  2188.4265 H        670 DC      0.0000
     90 H6        -6.4393     0.8373  2187.9488 H        670 DC      0.0000
     91 H41       -1.3205     2.3710  2188.4413 H        670 DC      0.0000
     92 H42       -2.6391     3.5036  2188.6385 H        670 DC      0.0000
     93 P          7.9846     2.8797  2190.0304 P.3      670 DG      0.0000
     94 OP1        9.3573     3.4459  2190.2092 O.co2    670 DG      0.0000
     95 OP2        7.1839     3.5879  2188.9456 O.co2    670 DG      0.0000
     96 O5'        8.0892     1.2502  2189.8232 O.3      670 DG      0.0000
     97 C5'        7.6854     0.3635  2190.9189 C.3      670 DG      0.0000
     98 C4'        6.9858    -0.8364  2190.2847 C.3      670 DG      0.0000
     99 O4'        5.6005    -0.6463  2190.1888 O.3      670 DG      0.0000
    100 C3'        7.4701    -1.1792  2188.8783 C.3      670 DG      0.0000
    101 O3'        7.5736    -2.5970  2188.6113 O.3      670 DG      0.0000
    102 C2'        6.4172    -0.5108  2187.9760 C.3      670 DG      0.0000
    103 C1'        5.1586    -0.7268  2188.7998 C.3      670 DG      0.0000
    104 N9         4.1597     0.3204  2188.5265 N.ar     670 DG      0.0000
    105 C8         4.3709     1.6697  2188.3699 C.ar     670 DG      0.0000
    106 N7         3.2808     2.3560  2188.1515 N.ar     670 DG      0.0000
    107 C5         2.2765     1.3955  2188.1763 C.ar     670 DG      0.0000
    108 C6         0.8690     1.5063  2188.0198 C.2      670 DG      0.0000
    109 O6         0.2260     2.5472  2187.8230 O.2      670 DG      0.0000
    110 N1         0.1951     0.3131  2188.1067 N.am     670 DG      0.0000
    111 C2         0.8230    -0.8679  2188.3274 C.2      670 DG      0.0000
    112 N2         0.0396    -1.9410  2188.3907 N.pl3    670 DG      0.0000
    113 N3         2.1428    -1.0270  2188.4851 N.2      670 DG      0.0000
    114 C4         2.8034     0.1441  2188.4018 C.ar     670 DG      0.0000
    115 H5'        8.5621     0.0342  2191.4767 H        670 DG      0.0000
    116 H5''       6.9972     0.8853  2191.5839 H        670 DG      0.0000
    117 H4'        7.1626    -1.7033  2190.9214 H        670 DG      0.0000
    118 H3'        8.4391    -0.7100  2188.7078 H        670 DG      0.0000
    119 H2'        6.6261     0.5494  2187.8333 H        670 DG      0.0000
    120 H2''       6.3459    -1.0244  2187.0173 H        670 DG      0.0000
    121 H1'        4.7383    -1.7114  2188.5946 H        670 DG      0.0000
    122 H8         5.3503     2.1219  2188.4226 H        670 DG      0.0000
    123 H1        -0.8094     0.3154  2188.0019 H        670 DG      0.0000
    124 H21       -0.9592    -1.8446  2188.2757 H        670 DG      0.0000
    125 H22        0.4435    -2.8523  2188.5539 H        670 DG      0.0000
    126 P          7.3384    -3.0348  2187.0878 P.3      669 DT      0.0000
    127 OP1        8.0720    -4.2893  2186.6969 O.co2    669 DT      0.0000
    128 OP2        7.8903    -1.8491  2186.3873 O.co2    669 DT      0.0000
    129 O5'        5.7573    -3.2589  2186.9569 O.3      669 DT      0.0000
    130 C5'        5.2585    -4.6086  2187.2246 C.3      669 DT      0.0000
    131 C4'        3.9620    -4.7981  2186.4675 C.3      669 DT      0.0000
    132 O4'        3.1627    -3.6291  2186.4402 O.3      669 DT      0.0000
    133 C3'        4.1727    -5.1886  2185.0128 C.3      669 DT      0.0000
    134 O3'        3.2167    -6.1511  2184.5177 O.3      669 DT      0.0000
    135 C2'        4.0649    -3.8643  2184.2900 C.3      669 DT      0.0000
    136 C1'        2.9128    -3.2505  2185.0681 C.3      669 DT      0.0000
    137 N1         3.0291    -1.7915  2184.9168 N.am     669 DT      0.0000
    138 C2         1.8467    -1.0664  2185.0235 C.2      669 DT      0.0000
    139 O2         0.7800    -1.6411  2185.2133 O.2      669 DT      0.0000
    140 N3         1.9348     0.2923  2184.9034 N.am     669 DT      0.0000
    141 C4         3.1240     0.9212  2184.6858 C.2      669 DT      0.0000
    142 O4         3.1064     2.1928  2184.5882 O.2      669 DT      0.0000
    143 C5         4.3178     0.1520  2184.5794 C.2      669 DT      0.0000
    144 C7         5.6354     0.8353  2184.3505 C.3      669 DT      0.0000
    145 C6         4.2258    -1.1748  2184.7012 C.2      669 DT      0.0000
    146 H5'        5.9903    -5.3442  2186.8908 H        669 DT      0.0000
    147 H5''       5.0798    -4.7281  2188.2932 H        669 DT      0.0000
    148 H4'        3.3936    -5.5899  2186.9555 H        669 DT      0.0000
    149 H3'        5.1803    -5.5855  2184.8888 H        669 DT      0.0000
    150 H2'        4.9774    -3.2752  2184.3815 H        669 DT      0.0000
    151 H2''       3.7966    -4.0103  2183.2436 H        669 DT      0.0000
    152 H1'        1.9481    -3.6171  2184.7174 H        669 DT      0.0000
    153 H3         1.0938     0.8466  2184.9780 H        669 DT      0.0000
    154 H6         5.1213    -1.7738  2184.6270 H        669 DT      0.0000
    155 H71        5.4798     1.9120  2184.2818 H        669 DT      0.0000
    156 H72        6.3065     0.6177  2185.1813 H        669 DT      0.0000
    157 H73        6.0767     0.4720  2183.4223 H        669 DT      0.0000
    158 P          4.0769    -7.3380  2183.7393 P.3      668 DG      0.0000
    159 OP1        4.3948    -8.5094  2184.6106 O.co2    668 DG      0.0000
    160 OP2        5.2517    -6.5267  2183.3338 O.co2    668 DG      0.0000
    161 O5'        3.0007    -7.8158  2182.6585 O.3      668 DG      0.0000
    162 C5'        1.9262    -8.6928  2183.0820 C.3      668 DG      0.0000
    163 C4'        0.6507    -7.9900  2182.6342 C.3      668 DG      0.0000
    164 O4'        0.7507    -6.6062  2182.9050 O.3      668 DG      0.0000
    165 C3'        0.3348    -8.1444  2181.1465 C.3      668 DG      0.0000
    166 O3'       -0.9534    -8.6950  2180.9380 O.3      668 DG      0.0000
    167 C2'        0.5542    -6.7571  2180.5698 C.3      668 DG      0.0000
    168 C1'        0.2964    -5.8581  2181.7559 C.3      668 DG      0.0000
    169 N9         1.0407    -4.6019  2181.6324 N.ar     668 DG      0.0000
    170 C8         2.3861    -4.4253  2181.4735 C.ar     668 DG      0.0000
    171 N7         2.7475    -3.1677  2181.3955 N.ar     668 DG      0.0000
    172 C5         1.5547    -2.4639  2181.5330 C.ar     668 DG      0.0000
    173 C6         1.2717    -1.0726  2181.5425 C.2      668 DG      0.0000
    174 O6         2.0769    -0.1522  2181.4434 O.2      668 DG      0.0000
    175 N1        -0.0503    -0.7625  2181.6914 N.am     668 DG      0.0000
    176 C2        -1.0167    -1.7300  2181.8243 C.2      668 DG      0.0000
    177 N2        -2.2676    -1.2888  2181.9600 N.pl3    668 DG      0.0000
    178 N3        -0.8187    -3.0521  2181.8286 N.2      668 DG      0.0000
    179 C4         0.4957    -3.3440  2181.6779 C.ar     668 DG      0.0000
    180 H5'        2.0153    -9.6680  2182.6032 H        668 DG      0.0000
    181 H5''       1.9349    -8.8031  2184.1663 H        668 DG      0.0000
    182 H4'       -0.1841    -8.3935  2183.2072 H        668 DG      0.0000
    183 H3'        1.0707    -8.8183  2180.7079 H        668 DG      0.0000
    184 H2'        1.5742    -6.6409  2180.2034 H        668 DG      0.0000
    185 H2''      -0.1633    -6.5557  2179.7743 H        668 DG      0.0000
    186 H1'       -0.7705    -5.6524  2181.8430 H        668 DG      0.0000
    187 H8         3.0865    -5.2454  2181.4174 H        668 DG      0.0000
    188 H1        -0.3260     0.2090  2181.7043 H        668 DG      0.0000
    189 H21       -2.4558    -0.2965  2181.9609 H        668 DG      0.0000
    190 H22       -3.0269    -1.9469  2182.0617 H        668 DG      0.0000
    191 P         -7.6091    -6.5179  2192.0719 P.3      671 DG      0.0000
    192 OP1       -9.0594    -6.8312  2192.0704 O.co2    671 DG      0.0000
    193 OP2       -7.3933    -5.4238  2193.1276 O.co2    671 DG      0.0000
    194 O5'       -6.6093    -7.7428  2192.2503 O.3      671 DG      0.0000
    195 C5'       -5.8287    -8.4312  2191.2503 C.3      671 DG      0.0000
    196 C4'       -4.4018    -8.5260  2191.7491 C.3      671 DG      0.0000
    197 O4'       -3.6191    -7.4292  2191.3300 O.3      671 DG      0.0000
    198 C3'       -4.1808    -8.6701  2193.2413 C.3      671 DG      0.0000
    199 O3'       -3.3622    -9.8294  2193.5533 O.3      671 DG      0.0000
    200 C2'       -3.5484    -7.3575  2193.6632 C.3      671 DG      0.0000
    201 C1'       -2.8636    -6.8746  2192.4076 C.3      671 DG      0.0000
    202 N9        -2.8422    -5.4009  2192.3785 N.ar     671 DG      0.0000
    203 C8        -3.8634    -4.5092  2192.6074 C.ar     671 DG      0.0000
    204 N7        -3.5050    -3.2483  2192.5177 N.ar     671 DG      0.0000
    205 C5        -2.1505    -3.3108  2192.2007 C.ar     671 DG      0.0000
    206 C6        -1.1863    -2.2976  2191.9747 C.2      671 DG      0.0000
    207 O6        -1.3443    -1.0766  2191.9960 O.2      671 DG      0.0000
    208 N1         0.0749    -2.7464  2191.6932 N.am     671 DG      0.0000
    209 C2         0.3801    -4.0031  2191.6326 C.2      671 DG      0.0000
    210 N2         1.6130    -4.1488  2191.3358 N.pl3    671 DG      0.0000
    211 N3        -0.4965    -5.0725  2191.8413 N.2      671 DG      0.0000
    212 C4        -1.7306    -4.6249  2192.1139 C.ar     671 DG      0.0000
    213 H5'       -6.2315    -9.4316  2191.0916 H        671 DG      0.0000
    214 H5''      -5.8545    -7.8722  2190.3150 H        671 DG      0.0000
    215 H4'       -3.9689    -9.4118  2191.2844 H        671 DG      0.0000
    216 H3'       -5.1469    -8.7740  2193.7353 H        671 DG      0.0000
    217 H2'       -4.3076    -6.6471  2193.9902 H        671 DG      0.0000
    218 H2''      -2.8178    -7.5244  2194.4547 H        671 DG      0.0000
    219 H1'       -1.8434    -7.2571  2192.3756 H        671 DG      0.0000
    220 H8        -4.8717    -4.8181  2192.8405 H        671 DG      0.0000
    221 H1         0.8018    -2.0656  2191.5249 H        671 DG      0.0000
    222 H21        2.1970    -3.3375  2191.1914 H        671 DG      0.0000
    223 H22        2.0045    -5.0754  2191.2454 H        671 DG      0.0000
    224 P         -2.7349   -10.0707  2194.9818 P.3      672 DT      0.0000
    225 OP1       -2.7641   -11.4877  2195.4935 O.co2    672 DT      0.0000
    226 OP2       -3.7028    -9.3031  2195.9005 O.co2    672 DT      0.0000
    227 O5'       -1.3489    -9.3770  2195.0104 O.3      672 DT      0.0000
    228 C5'       -0.0955   -10.1000  2194.8664 C.3      672 DT      0.0000
    229 C4'        0.9724    -9.0277  2194.9239 C.3      672 DT      0.0000
    230 O4'        0.4547    -7.7446  2194.6488 O.3      672 DT      0.0000
    231 C3'        1.6979    -8.8736  2196.2367 C.3      672 DT      0.0000
    232 O3'        3.0757    -9.2287  2196.0485 O.3      672 DT      0.0000
    233 C2'        1.5449    -7.4042  2196.6289 C.3      672 DT      0.0000
    234 C1'        1.3414    -6.7729  2195.2762 C.3      672 DT      0.0000
    235 N1         0.6079    -5.5108  2195.3728 N.am     672 DT      0.0000
    236 C2         1.3135    -4.3549  2195.1749 C.2      672 DT      0.0000
    237 O2         2.5191    -4.3503  2194.9367 O.2      672 DT      0.0000
    238 N3         0.6183    -3.1785  2195.2559 N.am     672 DT      0.0000
    239 C4        -0.7085    -3.1249  2195.5118 C.2      672 DT      0.0000
    240 O4        -1.2093    -1.9709  2195.5571 O.2      672 DT      0.0000
    241 C5        -1.4308    -4.3450  2195.7115 C.2      672 DT      0.0000
    242 C7        -2.8985    -4.3297  2195.9914 C.3      672 DT      0.0000
    243 C6        -0.7427    -5.4910  2195.6300 C.2      672 DT      0.0000
    244 H5'        0.0323   -10.8142  2195.6799 H        672 DT      0.0000
    245 H5''      -0.0639   -10.6130  2193.9053 H        672 DT      0.0000
    246 H4'        1.7146    -9.2571  2194.1594 H        672 DT      0.0000
    247 H3'        1.2450    -9.5137  2196.9938 H        672 DT      0.0000
    248 H2'        0.6827    -7.2497  2197.2777 H        672 DT      0.0000
    249 H2''       2.4552    -7.0312  2197.0981 H        672 DT      0.0000
    250 H1'        2.2786    -6.6616  2194.7308 H        672 DT      0.0000
    251 H3         1.1185    -2.3120  2195.1184 H        672 DT      0.0000
    252 H6        -1.2637    -6.4267  2195.7704 H        672 DT      0.0000
    253 H71       -3.4444    -4.5944  2195.0859 H        672 DT      0.0000
    254 H72       -3.1957    -3.3326  2196.3162 H        672 DT      0.0000
    255 H73       -3.1261    -5.0505  2196.7767 H        672 DT      0.0000
    256 P          3.7138   -10.0036  2197.3284 P.3      673 DG      0.0000
    257 OP1        4.6278   -10.9906  2196.6134 O.co2    673 DG      0.0000
    258 OP2        2.6421   -10.6295  2198.0819 O.co2    673 DG      0.0000
    259 O5'        4.4876    -8.7020  2197.9379 O.3      673 DG      0.0000
    260 C5'        5.1924    -7.9968  2196.8473 C.3      673 DG      0.0000
    261 C4'        5.6036    -6.6509  2197.3674 C.3      673 DG      0.0000
    262 O4'        4.6888    -5.6032  2197.1868 O.3      673 DG      0.0000
    263 C3'        5.9535    -6.6806  2198.8754 C.3      673 DG      0.0000
    264 O3'        7.2842    -6.1318  2199.0343 O.3      673 DG      0.0000
    265 C2'        4.8253    -5.9105  2199.5280 C.3      673 DG      0.0000
    266 C1'        4.4764    -4.8948  2198.4464 C.3      673 DG      0.0000
    267 N9         3.1125    -4.3812  2198.6160 N.ar     673 DG      0.0000
    268 C8         1.9766    -5.0647  2198.9522 C.ar     673 DG      0.0000
    269 N7         0.8951    -4.3218  2199.0379 N.ar     673 DG      0.0000
    270 C5         1.3623    -3.0516  2198.7079 C.ar     673 DG      0.0000
    271 C6         0.6815    -1.8042  2198.6136 C.2      673 DG      0.0000
    272 O6        -0.5212    -1.5714  2198.8059 O.2      673 DG      0.0000
    273 N1         1.4875    -0.7404  2198.2785 N.am     673 DG      0.0000
    274 C2         2.8222    -0.8900  2198.0548 C.2      673 DG      0.0000
    275 N2         3.4485     0.2530  2197.7459 N.pl3    673 DG      0.0000
    276 N3         3.5022    -2.0321  2198.1258 N.2      673 DG      0.0000
    277 C4         2.7166    -3.0727  2198.4524 C.ar     673 DG      0.0000
    278 H5'        6.0734    -8.5639  2196.5469 H        673 DG      0.0000
    279 H5''       4.5241    -7.8744  2195.9949 H        673 DG      0.0000
    280 H4'        6.5138    -6.3713  2196.8368 H        673 DG      0.0000
    281 H3'        5.9417    -7.7112  2199.2302 H        673 DG      0.0000
    282 H2'        3.9786    -6.5596  2199.7509 H        673 DG      0.0000
    283 H2''       5.1735    -5.4080  2200.4304 H        673 DG      0.0000
    284 H1'        5.1770    -4.0618  2198.5054 H        673 DG      0.0000
    285 H8         1.9685    -6.1295  2199.1328 H        673 DG      0.0000
    286 H1         1.0769     0.1787  2198.1962 H        673 DG      0.0000
    287 H21        2.9275     1.1168  2197.6957 H        673 DG      0.0000
    288 H22        4.4419     0.2511  2197.5633 H        673 DG      0.0000
    289 P          8.0023    -6.1159  2200.4227 P.3      674 DA      0.0000
    290 OP1        8.8105    -7.3216  2200.7781 O.co2    674 DA      0.0000
    291 OP2        6.7096    -6.1309  2201.3184 O.co2    674 DA      0.0000
    292 O5'        8.6226    -4.6778  2200.6718 O.3      674 DA      0.0000
    293 C5'        8.9600    -3.7360  2199.6428 C.3      674 DA      0.0000
    294 C4'        8.3980    -2.4056  2200.1171 C.3      674 DA      0.0000
    295 O4'        6.9894    -2.4067  2200.0267 O.3      674 DA      0.0000
    296 C3'        8.7511    -1.9930  2201.5461 C.3      674 DA      0.0000
    297 O3'        9.1961    -0.6218  2201.5984 O.3      674 DA      0.0000
    298 C2'        7.4248    -2.2208  2202.2816 C.3      674 DA      0.0000
    299 C1'        6.4647    -1.7403  2201.2040 C.3      674 DA      0.0000
    300 N9         5.0722    -2.1390  2201.4324 N.ar     674 DA      0.0000
    301 C8         4.5374    -3.3773  2201.6481 C.ar     674 DA      0.0000
    302 N7         3.2334    -3.3733  2201.8131 N.ar     674 DA      0.0000
    303 C5         2.8847    -2.0383  2201.6729 C.ar     674 DA      0.0000
    304 C6         1.6320    -1.3884  2201.7209 C.ar     674 DA      0.0000
    305 N6         0.4690    -2.0062  2201.9407 N.pl3    674 DA      0.0000
    306 N1         1.6698    -0.0360  2201.5311 N.ar     674 DA      0.0000
    307 C2         2.8383     0.6104  2201.3133 C.ar     674 DA      0.0000
    308 N3         4.0529     0.0654  2201.2551 N.ar     674 DA      0.0000
    309 C4         3.9966    -1.2658  2201.4419 C.ar     674 DA      0.0000
    310 H5'        8.5054    -4.0264  2198.6956 H        674 DA      0.0000
    311 H5''      10.0426    -3.6694  2199.5350 H        674 DA      0.0000
    312 H4'        8.7718    -1.6311  2199.4473 H        674 DA      0.0000
    313 H3'        9.5205    -2.6525  2201.9476 H        674 DA      0.0000
    314 H2'        7.2697    -3.2714  2202.5271 H        674 DA      0.0000
    315 H2''       7.3584    -1.5963  2203.1725 H        674 DA      0.0000
    316 H1'        6.5348    -0.6586  2201.0895 H        674 DA      0.0000
    317 H8         5.1323    -4.2782  2201.6802 H        674 DA      0.0000
    318 H2         2.7807     1.6796  2201.1720 H        674 DA      0.0000
    319 H61        0.3136    -2.9994  2201.8433 H        674 DA      0.0000
    320 H62       -0.3851    -1.4950  2201.7692 H        674 DA      0.0000
    321 P         10.2466    -0.0815  2202.7399 P.3      675 DA      0.0000
    322 OP1       11.5028     0.4210  2202.0728 O.co2    675 DA      0.0000
    323 OP2       10.4114    -1.2916  2203.5708 O.co2    675 DA      0.0000
    324 O5'        9.5281     1.2402  2203.2707 O.3      675 DA      0.0000
    325 C5'        9.2445     2.3695  2202.4464 C.3      675 DA      0.0000
    326 C4'        7.9805     3.0296  2202.9687 C.3      675 DA      0.0000
    327 O4'        6.9110     2.1271  2202.9969 O.3      675 DA      0.0000
    328 C3'        8.0481     3.6875  2204.3360 C.3      675 DA      0.0000
    329 O3'        7.8328     5.0965  2204.2582 O.3      675 DA      0.0000
    330 C2'        7.0144     2.9149  2205.1647 C.3      675 DA      0.0000
    331 C1'        6.0681     2.3624  2204.1709 C.3      675 DA      0.0000
    332 N9         5.3581     1.0986  2204.4390 N.ar     675 DA      0.0000
    333 C8         5.8450    -0.1809  2204.5542 C.ar     675 DA      0.0000
    334 N7         4.9187    -1.0945  2204.7235 N.ar     675 DA      0.0000
    335 C5         3.7302    -0.3724  2204.6865 C.ar     675 DA      0.0000
    336 C6         2.3706    -0.7783  2204.8069 C.ar     675 DA      0.0000
    337 N6         1.9524    -2.0232  2204.9985 N.pl3    675 DA      0.0000
    338 N1         1.4409     0.2266  2204.7087 N.ar     675 DA      0.0000
    339 C2         1.8331     1.5200  2204.5197 C.ar     675 DA      0.0000
    340 N3         3.0796     1.9658  2204.4118 N.ar     675 DA      0.0000
    341 C4         3.9812     0.9677  2204.5037 C.ar     675 DA      0.0000
    342 H5'        9.0937     2.0463  2201.4163 H        675 DA      0.0000
    343 H5''      10.0737     3.0756  2202.4923 H        675 DA      0.0000
    344 H4'        7.7152     3.8104  2202.2560 H        675 DA      0.0000
    345 H3'        9.0366     3.5095  2204.7592 H        675 DA      0.0000
    346 H2'        7.4942     2.1124  2205.7250 H        675 DA      0.0000
    347 H2''       6.4952     3.5907  2205.8443 H        675 DA      0.0000
    348 H1'        5.3337     3.1294  2203.9249 H        675 DA      0.0000
    349 H8         6.8985    -0.4144  2204.5093 H        675 DA      0.0000
    350 H2         1.0478     2.2582  2204.4505 H        675 DA      0.0000
    351 H61        2.5682    -2.7544  2205.3247 H        675 DA      0.0000
    352 H62        0.9854    -2.2472  2204.8117 H        675 DA      0.0000
    353 P          8.5280     6.2131  2205.2144 P.3      676 DT      0.0000
    354 OP1        8.9710     7.4346  2204.4171 O.co2    676 DT      0.0000
    355 OP2        9.5591     5.6133  2206.0350 O.co2    676 DT      0.0000
    356 O5'        7.2272     6.8055  2206.0281 O.3      676 DT      0.0000
    357 C5'        6.0807     6.9359  2205.0830 C.3      676 DT      0.0000
    358 C4'        4.8908     6.4495  2205.8707 C.3      676 DT      0.0000
    359 O4'        4.8712     5.0529  2206.0627 O.3      676 DT      0.0000
    360 C3'        4.8451     7.0516  2207.2873 C.3      676 DT      0.0000
    361 O3'        3.9607     8.1569  2207.2890 O.3      676 DT      0.0000
    362 C2'        4.4233     5.8907  2208.1846 C.3      676 DT      0.0000
    363 C1'        3.9419     4.8817  2207.2199 C.3      676 DT      0.0000
    364 N1         3.9556     3.4678  2207.5597 N.am     676 DT      0.0000
    365 C2         2.7203     2.8426  2207.6976 C.2      676 DT      0.0000
    366 O2         1.6917     3.5008  2207.6096 O.2      676 DT      0.0000
    367 N3         2.7005     1.5044  2207.9516 N.am     676 DT      0.0000
    368 C4         3.8387     0.7595  2208.0718 C.2      676 DT      0.0000
    369 O4         3.7370    -0.4829  2208.3270 O.2      676 DT      0.0000
    370 C5         5.0992     1.4208  2207.9002 C.2      676 DT      0.0000
    371 C7         6.3825     0.6420  2207.9877 C.3      676 DT      0.0000
    372 C6         5.1131     2.7403  2207.6444 C.2      676 DT      0.0000
    373 H5'        5.9454     7.9746  2204.7813 H        676 DT      0.0000
    374 H5''       6.2383     6.3054  2204.2080 H        676 DT      0.0000
    375 H4'        3.9830     6.7394  2205.3416 H        676 DT      0.0000
    376 H3'        5.8430     7.3853  2207.5716 H        676 DT      0.0000
    377 H2'        5.2692     5.5117  2208.7580 H        676 DT      0.0000
    378 H2''       3.6169     6.1968  2208.8510 H        676 DT      0.0000
    379 H1'        2.9355     5.1546  2206.9026 H        676 DT      0.0000
    380 H3         1.8074     1.0443  2208.0553 H        676 DT      0.0000
    381 H6         6.0603     3.2393  2207.5023 H        676 DT      0.0000
    382 H71        6.1598    -0.4035  2208.2008 H        676 DT      0.0000
    383 H72        6.9160     0.7138  2207.0399 H        676 DT      0.0000
    384 H73        7.0022     1.0514  2208.7855 H        676 DT      0.0000
    385 P          3.7266     9.2200  2208.3956 P.3      677 DT      0.0000
    386 OP1        3.1325    10.5150  2207.7835 O.co2    677 DT      0.0000
    387 OP2        5.0497     9.4642  2209.0256 O.co2    677 DT      0.0000
    388 O5'        2.5275     8.6238  2209.2779 O.3      677 DT      0.0000
    389 C5'        1.2609     8.6286  2208.5662 C.3      677 DT      0.0000
    390 C4'        0.3296     7.6833  2209.2423 C.3      677 DT      0.0000
    391 O4'        0.7673     6.3304  2209.2190 O.3      677 DT      0.0000
    392 C3'        0.0317     8.0267  2210.7089 C.3      677 DT      0.0000
    393 O3'       -1.3511     7.8846  2210.9730 O.3      677 DT      0.0000
    394 C2'        0.8219     6.9189  2211.4453 C.3      677 DT      0.0000
    395 C1'        0.4357     5.7656  2210.5417 C.3      677 DT      0.0000
    396 N1         1.2219     4.5827  2210.8394 N.am     677 DT      0.0000
    397 C2         0.5776     3.3574  2210.8942 C.2      677 DT      0.0000
    398 O2        -0.6390     3.3147  2210.7058 O.2      677 DT      0.0000
    399 N3         1.3256     2.2452  2211.1601 N.am     677 DT      0.0000
    400 C4         2.6695     2.3070  2211.3672 C.2      677 DT      0.0000
    401 O4         3.2986     1.2334  2211.5905 O.2      677 DT      0.0000
    402 C5         3.3225     3.5723  2211.3021 C.2      677 DT      0.0000
    403 C7         4.8011     3.7217  2211.5120 C.3      677 DT      0.0000
    404 C6         2.5726     4.6544  2211.0410 C.2      677 DT      0.0000
    405 H5'        0.8371     9.6327  2208.5786 H        677 DT      0.0000
    406 H5''       1.4194     8.3113  2207.5354 H        677 DT      0.0000
    407 H4'       -0.6172     7.7244  2208.7038 H        677 DT      0.0000
    408 H3'        0.3922     9.0214  2210.9714 H        677 DT      0.0000
    409 H2'        1.8958     7.1049  2211.4440 H        677 DT      0.0000
    410 H2''       0.4468     6.7713  2212.4580 H        677 DT      0.0000
    411 H1'       -0.6306     5.5527  2210.6173 H        677 DT      0.0000
    412 H3         0.8657     1.3470  2211.2046 H        677 DT      0.0000
    413 H6         3.0547     5.6193  2210.9879 H        677 DT      0.0000
    414 H71        5.2410     2.7444  2211.7109 H        677 DT      0.0000
    415 H72        5.2537     4.1480  2210.6167 H        677 DT      0.0000
    416 H73        4.9829     4.3814  2212.3604 H        677 DT      0.0000
    417 P         -2.4880     8.7795  2211.5809 P.3      678 DC      0.0000
    418 OP1       -3.4627     9.2373  2210.5130 O.co2    678 DC      0.0000
    419 OP2       -1.7904     9.8503  2212.3159 O.co2    678 DC      0.0000
    420 O5'       -3.2349     7.5878  2212.4069 O.3      678 DC      0.0000
    421 C5'       -3.4608     6.5489  2211.3847 C.3      678 DC      0.0000
    422 C4'       -4.0863     5.3741  2212.0812 C.3      678 DC      0.0000
    423 O4'       -3.1748     4.3487  2212.3281 O.3      678 DC      0.0000
    424 C3'       -4.8254     5.7057  2213.3727 C.3      678 DC      0.0000
    425 O3'       -6.1765     5.2709  2213.2930 O.3      678 DC      0.0000
    426 C2'       -3.9173     5.0600  2214.4214 C.3      678 DC      0.0000
    427 C1'       -3.2917     3.9170  2213.7250 C.3      678 DC      0.0000
    428 N1        -1.8957     3.6156  2214.0571 N.am     678 DC      0.0000
    429 C2        -1.6066     2.2770  2214.3129 C.2      678 DC      0.0000
    430 O2        -2.4931     1.4174  2214.3174 O.2      678 DC      0.0000
    431 N3        -0.3007     1.9531  2214.5867 N.2      678 DC      0.0000
    432 C4         0.6842     2.8966  2214.5768 C.2      678 DC      0.0000
    433 N4         1.9164     2.4845  2214.8537 N.pl3    678 DC      0.0000
    434 C5         0.3787     4.2471  2214.2988 C.2      678 DC      0.0000
    435 C6        -0.9089     4.5495  2214.0340 C.2      678 DC      0.0000
    436 H5'       -4.1303     6.9249  2210.6110 H        678 DC      0.0000
    437 H5''      -2.5104     6.2533  2210.9405 H        678 DC      0.0000
    438 H4'       -4.8298     4.9681  2211.3952 H        678 DC      0.0000
    439 H3'       -4.8130     6.7862  2213.5159 H        678 DC      0.0000
    440 H2'       -3.1586     5.7658  2214.7593 H        678 DC      0.0000
    441 H2''      -4.5086     4.7084  2215.2670 H        678 DC      0.0000
    442 H1'       -3.9125     3.0247  2213.8060 H        678 DC      0.0000
    443 H5         1.1455     5.0076  2214.2982 H        678 DC      0.0000
    444 H6        -1.1649     5.5712  2213.7950 H        678 DC      0.0000
    445 H41        2.0901     1.5097  2215.0529 H        678 DC      0.0000
    446 H42        2.6795     3.1460  2214.8650 H        678 DC      0.0000
    447 P         -7.3991     5.7527  2214.2450 P.3      679 DA      0.0000
    448 OP1       -8.6782     5.5682  2213.4513 O.co2    679 DA      0.0000
    449 OP2       -7.1707     7.1706  2214.5906 O.co2    679 DA      0.0000
    450 O5'       -7.3134     4.7435  2215.5420 O.3      679 DA      0.0000
    451 C5'       -7.2901     3.3133  2215.2468 C.3      679 DA      0.0000
    452 C4'       -7.1105     2.5242  2216.5021 C.3      679 DA      0.0000
    453 O4'       -5.7776     2.0638  2216.7442 O.3      679 DA      0.0000
    454 C3'       -7.4387     3.2682  2217.8073 C.3      679 DA      0.0000
    455 O3'       -7.6645     2.3031  2218.8372 O.3      679 DA      0.0000
    456 C2'       -6.0980     3.9986  2218.0219 C.3      679 DA      0.0000
    457 C1'       -5.1993     2.7709  2217.8386 C.3      679 DA      0.0000
    458 N9        -3.8146     3.2014  2217.7443 N.ar     679 DA      0.0000
    459 C8        -3.2770     4.4533  2217.6285 C.ar     679 DA      0.0000
    460 N7        -1.9568     4.4941  2217.6099 N.ar     679 DA      0.0000
    461 C5        -1.5977     3.1580  2217.7174 C.ar     679 DA      0.0000
    462 C6        -0.3362     2.5141  2217.7519 C.ar     679 DA      0.0000
    463 N6         0.8254     3.1371  2217.6667 N.pl3    679 DA      0.0000
    464 N1        -0.3582     1.1552  2217.8845 N.ar     679 DA      0.0000
    465 C2        -1.5403     0.4684  2217.9647 C.ar     679 DA      0.0000
    466 N3        -2.7599     1.0004  2217.9349 N.ar     679 DA      0.0000
    467 C4        -2.7190     2.3498  2217.8118 C.ar     679 DA      0.0000
    468 H5'       -8.2309     3.0288  2214.7756 H        679 DA      0.0000
    469 H5''      -6.4665     3.0992  2214.5655 H        679 DA      0.0000
    470 H4'       -7.7599     1.6508  2216.4432 H        679 DA      0.0000
    471 H3'       -8.2747     3.9584  2217.6937 H        679 DA      0.0000
    472 H2'       -5.9150     4.7673  2217.2711 H        679 DA      0.0000
    473 H2''      -6.0209     4.4015  2219.0318 H        679 DA      0.0000
    474 H1'       -5.2967     2.1488  2218.7283 H        679 DA      0.0000
    475 H8        -3.8862     5.3423  2217.5575 H        679 DA      0.0000
    476 H2        -1.4769    -0.6054  2218.0612 H        679 DA      0.0000
    477 H61        1.7824     2.8691  2217.8467 H        679 DA      0.0000
    478 H62        0.7370     4.0928  2217.3520 H        679 DA      0.0000
    479 P         -9.0671     1.5459  2218.9777 P.3      680 DC      0.0000
    480 OP1       -9.8850     1.5885  2217.7326 O.co2    680 DC      0.0000
    481 OP2       -9.7095     2.2775  2220.1206 O.co2    680 DC      0.0000
    482 O5'       -8.6437     0.0441  2219.2609 O.3      680 DC      0.0000
    483 C5'       -8.2732    -0.8560  2218.1732 C.3      680 DC      0.0000
    484 C4'       -7.2960    -1.8036  2218.8781 C.3      680 DC      0.0000
    485 O4'       -6.1409    -1.0600  2219.1901 O.3      680 DC      0.0000
    486 C3'       -7.8308    -2.3765  2220.1880 C.3      680 DC      0.0000
    487 O3'       -7.7280    -3.8168  2220.2559 O.3      680 DC      0.0000
    488 C2'       -7.0114    -1.6573  2221.2702 C.3      680 DC      0.0000
    489 C1'       -5.7210    -1.4270  2220.5940 C.3      680 DC      0.0000
    490 N1        -4.8663    -0.2964  2220.9469 N.am     680 DC      0.0000
    491 C2        -3.4977    -0.5577  2220.9200 C.2      680 DC      0.0000
    492 O2        -3.0416    -1.6751  2220.7131 O.2      680 DC      0.0000
    493 N3        -2.6580     0.4819  2221.1731 N.2      680 DC      0.0000
    494 C4        -3.1061     1.7392  2221.4065 C.2      680 DC      0.0000
    495 N4        -2.1862     2.6739  2221.6374 N.pl3    680 DC      0.0000
    496 C5        -4.5048     1.9960  2221.4130 C.2      680 DC      0.0000
    497 C6        -5.3273     0.9653  2221.1636 C.2      680 DC      0.0000
    498 H5'       -9.1402    -1.3930  2217.7883 H        680 DC      0.0000
    499 H5''      -7.7719    -0.3097  2217.3741 H        680 DC      0.0000
    500 H4'       -7.0321    -2.6197  2218.2054 H        680 DC      0.0000
    501 H3'       -8.8781    -2.0935  2220.2939 H        680 DC      0.0000
    502 H2'       -7.4791    -0.7155  2221.5572 H        680 DC      0.0000
    503 H2''      -6.8786    -2.3000  2222.1405 H        680 DC      0.0000
    504 H1'       -5.1368    -2.3471  2220.5808 H        680 DC      0.0000
    505 H5        -4.8911     2.9848  2221.6115 H        680 DC      0.0000
    506 H6        -6.3920     1.1435  2221.1339 H        680 DC      0.0000
    507 H41       -1.2059     2.4313  2221.6263 H        680 DC      0.0000
    508 H42       -2.4689     3.6256  2221.8235 H        680 DC      0.0000
    509 P          8.1129     2.4955  2223.2154 P.3      680 DG      0.0000
    510 OP1        9.5111     2.9955  2223.3942 O.co2    680 DG      0.0000
    511 OP2        7.3469     3.2411  2222.1306 O.co2    680 DG      0.0000
    512 O5'        8.1396     0.8628  2223.0082 O.3      680 DG      0.0000
    513 C5'        7.6940    -0.0036  2224.1040 C.3      680 DG      0.0000
    514 C4'        6.9380    -1.1687  2223.4697 C.3      680 DG      0.0000
    515 O4'        5.5633    -0.9128  2223.3739 O.3      680 DG      0.0000
    516 C3'        7.4054    -1.5343  2222.0633 C.3      680 DG      0.0000
    517 O3'        7.4411    -2.9554  2221.7964 O.3      680 DG      0.0000
    518 C2'        6.3855    -0.8164  2221.1611 C.3      680 DG      0.0000
    519 C1'        5.1181    -0.9721  2221.9849 C.3      680 DG      0.0000
    520 N9         4.1702     0.1216  2221.7116 N.ar     680 DG      0.0000
    521 C8         4.4456     1.4592  2221.5549 C.ar     680 DG      0.0000
    522 N7         3.3895     2.1968  2221.3365 N.ar     680 DG      0.0000
    523 C5         2.3404     1.2853  2221.3613 C.ar     680 DG      0.0000
    524 C6         0.9399     1.4631  2221.2048 C.2      680 DG      0.0000
    525 O6         0.3472     2.5335  2221.0080 O.2      680 DG      0.0000
    526 N1         0.2098     0.3034  2221.2917 N.am     680 DG      0.0000
    527 C2         0.7807    -0.9062  2221.5124 C.2      680 DG      0.0000
    528 N2        -0.0531    -1.9407  2221.5758 N.pl3    680 DG      0.0000
    529 N3         2.0913    -1.1281  2221.6701 N.2      680 DG      0.0000
    530 C4         2.8071     0.0102  2221.5869 C.ar     680 DG      0.0000
    531 H5'        8.5540    -0.3743  2224.6617 H        680 DG      0.0000
    532 H5''       7.0314     0.5505  2224.7689 H        680 DG      0.0000
    533 H4'        7.0732    -2.0430  2224.1064 H        680 DG      0.0000
    534 H3'        8.3957    -1.1119  2221.8929 H        680 DG      0.0000
    535 H2'        6.6448     0.2326  2221.0184 H        680 DG      0.0000
    536 H2''       6.2898    -1.3260  2220.2023 H        680 DG      0.0000
    537 H1'        4.6512    -1.9355  2221.7796 H        680 DG      0.0000
    538 H8         5.4454     1.8643  2221.6077 H        680 DG      0.0000
    539 H1        -0.7934     0.3536  2221.1870 H        680 DG      0.0000
    540 H21       -1.0461    -1.7968  2221.4607 H        680 DG      0.0000
    541 H22        0.3069    -2.8702  2221.7389 H        680 DG      0.0000
    542 P          7.1853    -3.3814  2220.2729 P.3      679 DT      0.0000
    543 OP1        7.8582    -4.6696  2219.8820 O.co2    679 DT      0.0000
    544 OP2        7.7931    -2.2234  2219.5723 O.co2    679 DT      0.0000
    545 O5'        5.5953    -3.5299  2220.1420 O.3      679 DT      0.0000
    546 C5'        5.0326    -4.8542  2220.4096 C.3      679 DT      0.0000
    547 C4'        3.7286    -4.9817  2219.6526 C.3      679 DT      0.0000
    548 O4'        2.9860    -3.7758  2219.6253 O.3      679 DT      0.0000
    549 C3'        3.9204    -5.3818  2218.1979 C.3      679 DT      0.0000
    550 O3'        2.9195    -6.2976  2217.7027 O.3      679 DT      0.0000
    551 C2'        3.8759    -4.0538  2217.4750 C.3      679 DT      0.0000
    552 C1'        2.7544    -3.3857  2218.2531 C.3      679 DT      0.0000
    553 N1         2.9402    -1.9340  2218.1018 N.am     679 DT      0.0000
    554 C2         1.7937    -1.1533  2218.2086 C.2      679 DT      0.0000
    555 O2         0.7008    -1.6765  2218.3983 O.2      679 DT      0.0000
    556 N3         1.9466     0.1997  2218.0884 N.am     679 DT      0.0000
    557 C4         3.1644     0.7711  2217.8708 C.2      679 DT      0.0000
    558 O4         3.2075     2.0421  2217.7733 O.2      679 DT      0.0000
    559 C5         4.3201    -0.0542  2217.7644 C.2      679 DT      0.0000
    560 C7         5.6688     0.5655  2217.5355 C.3      679 DT      0.0000
    561 C6         4.1649    -1.3750  2217.8862 C.2      679 DT      0.0000
    562 H5'        5.7285    -5.6239  2220.0759 H        679 DT      0.0000
    563 H5''       4.8484    -4.9651  2221.4782 H        679 DT      0.0000
    564 H4'        3.1230    -5.7455  2220.1405 H        679 DT      0.0000
    565 H3'        4.9079    -5.8263  2218.0739 H        679 DT      0.0000
    566 H2'        4.8155    -3.5089  2217.5666 H        679 DT      0.0000
    567 H2''       3.6010    -4.1868  2216.4286 H        679 DT      0.0000
    568 H1'        1.7733    -3.7060  2217.9025 H        679 DT      0.0000
    569 H3         1.1329     0.7934  2218.1631 H        679 DT      0.0000
    570 H6         5.0308    -2.0162  2217.8121 H        679 DT      0.0000
    571 H71        5.5648     1.6483  2217.4668 H        679 DT      0.0000
    572 H72        6.3287     0.3162  2218.3664 H        679 DT      0.0000
    573 H73        6.0923     0.1816  2216.6074 H        679 DT      0.0000
    574 P          3.7221    -7.5242  2216.9244 P.3      678 DG      0.0000
    575 OP1        3.9838    -8.7094  2217.7956 O.co2    678 DG      0.0000
    576 OP2        4.9344    -6.7698  2216.5188 O.co2    678 DG      0.0000
    577 O5'        2.6244    -7.9501  2215.8435 O.3      678 DG      0.0000
    578 C5'        1.5092    -8.7748  2216.2670 C.3      678 DG      0.0000
    579 C4'        0.2688    -8.0120  2215.8193 C.3      678 DG      0.0000
    580 O4'        0.4347    -6.6345  2216.0900 O.3      678 DG      0.0000
    581 C3'       -0.0541    -8.1511  2214.3315 C.3      678 DG      0.0000
    582 O3'       -1.3671    -8.6396  2214.1230 O.3      678 DG      0.0000
    583 C2'        0.2312    -6.7758  2213.7548 C.3      678 DG      0.0000
    584 C1'        0.0166    -5.8656  2214.9410 C.3      678 DG      0.0000
    585 N9         0.8200    -4.6463  2214.8174 N.ar     678 DG      0.0000
    586 C8         2.1722    -4.5341  2214.6585 C.ar     678 DG      0.0000
    587 N7         2.5933    -3.2952  2214.5805 N.ar     678 DG      0.0000
    588 C5         1.4354    -2.5353  2214.7180 C.ar     678 DG      0.0000
    589 C6         1.2191    -1.1320  2214.7275 C.2      678 DG      0.0000
    590 O6         2.0672    -0.2511  2214.6284 O.2      678 DG      0.0000
    591 N1        -0.0866    -0.7592  2214.8764 N.am     678 DG      0.0000
    592 C2        -1.0981    -1.6795  2215.0093 C.2      678 DG      0.0000
    593 N2        -2.3265    -1.1791  2215.1450 N.pl3    678 DG      0.0000
    594 N3        -0.9634    -3.0096  2215.0136 N.2      678 DG      0.0000
    595 C4         0.3356    -3.3639  2214.8629 C.ar     678 DG      0.0000
    596 H5'        1.5518    -9.7531  2215.7883 H        678 DG      0.0000
    597 H5''       1.5127    -8.8854  2217.3513 H        678 DG      0.0000
    598 H4'       -0.5843    -8.3752  2216.3923 H        678 DG      0.0000
    599 H3'        0.6488    -8.8593  2213.8930 H        678 DG      0.0000
    600 H2'        1.2555    -6.7084  2213.3885 H        678 DG      0.0000
    601 H2''      -0.4758    -6.5405  2212.9593 H        678 DG      0.0000
    602 H1'       -1.0393    -5.6092  2215.0280 H        678 DG      0.0000
    603 H8         2.8328    -5.3867  2214.6024 H        678 DG      0.0000
    604 H1        -0.3157     0.2244  2214.8893 H        678 DG      0.0000
    605 H21       -2.4672    -0.1790  2215.1460 H        678 DG      0.0000
    606 H22       -3.1163    -1.8002  2215.2468 H        678 DG      0.0000
    607 P         -2.6068    -8.1816  2213.2567 P.3      677 DA      0.0000
    608 OP1       -3.9081    -8.4038  2214.0381 O.co2    677 DA      0.0000
    609 OP2       -2.5749    -9.0311  2212.0640 O.co2    677 DA      0.0000
    610 O5'       -2.4683    -6.5678  2213.0819 O.3      677 DA      0.0000
    611 C5'       -3.0353    -5.8450  2214.2384 C.3      677 DA      0.0000
    612 C4'       -4.1848    -5.0227  2213.7106 C.3      677 DA      0.0000
    613 O4'       -3.8290    -3.6817  2213.4883 O.3      677 DA      0.0000
    614 C3'       -4.7145    -5.5305  2212.3701 C.3      677 DA      0.0000
    615 O3'       -6.1196    -5.4933  2212.2949 O.3      677 DA      0.0000
    616 C2'       -3.9318    -4.6943  2211.3735 C.3      677 DA      0.0000
    617 C1'       -3.5215    -3.4424  2212.0974 C.3      677 DA      0.0000
    618 N9        -2.1011    -3.1246  2211.8719 N.ar     677 DA      0.0000
    619 C8        -1.0402    -3.9843  2211.6855 C.ar     677 DA      0.0000
    620 N7         0.1128    -3.3871  2211.4896 N.ar     677 DA      0.0000
    621 C5        -0.2090    -2.0384  2211.5765 C.ar     677 DA      0.0000
    622 C6         0.5912    -0.8768  2211.4708 C.ar     677 DA      0.0000
    623 N6         1.8952    -0.8989  2211.2583 N.pl3    677 DA      0.0000
    624 N1        -0.0604     0.3124  2211.5945 N.ar     677 DA      0.0000
    625 C2        -1.4066     0.3654  2211.8191 C.ar     677 DA      0.0000
    626 N3        -2.2140    -0.6869  2211.9349 N.ar     677 DA      0.0000
    627 C4        -1.5550    -1.8630  2211.7988 C.ar     677 DA      0.0000
    628 H5'       -3.3918    -6.5531  2214.9865 H        677 DA      0.0000
    629 H5''      -2.2802    -5.1913  2214.6751 H        677 DA      0.0000
    630 H4'       -4.9958    -5.0513  2214.4383 H        677 DA      0.0000
    631 H3'       -4.4001    -6.5680  2212.2570 H        677 DA      0.0000
    632 H2'       -4.5579    -4.4459  2210.5166 H        677 DA      0.0000
    633 H2''      -3.0480    -5.2399  2211.0430 H        677 DA      0.0000
    634 H1'       -4.1301    -2.6122  2211.7392 H        677 DA      0.0000
    635 H8        -1.1480    -5.0588  2211.6994 H        677 DA      0.0000
    636 H2        -1.8541     1.3441  2211.9103 H        677 DA      0.0000
    637 H61        2.4889    -0.1450  2211.5738 H        677 DA      0.0000
    638 H62        2.3055    -1.6833  2210.7721 H        677 DA      0.0000
    639 P         -7.0939    -5.1136  2211.1103 P.3      676 DA      0.0000
    640 OP1       -8.5544    -4.9727  2211.6302 O.co2    676 DA      0.0000
    641 OP2       -7.0208    -6.2804  2210.1766 O.co2    676 DA      0.0000
    642 O5'       -6.6864    -3.6772  2210.6076 O.3      676 DA      0.0000
    643 C5'       -7.4172    -2.5199  2211.0635 C.3      676 DA      0.0000
    644 C4'       -6.8236    -1.3180  2210.3615 C.3      676 DA      0.0000
    645 O4'       -5.4301    -1.3521  2210.2408 O.3      676 DA      0.0000
    646 C3'       -7.3769    -1.0997  2208.9540 C.3      676 DA      0.0000
    647 O3'       -8.1381     0.1224  2208.9226 O.3      676 DA      0.0000
    648 C2'       -6.1447    -1.2124  2208.0544 C.3      676 DA      0.0000
    649 C1'       -5.0242    -0.7829  2208.9522 C.3      676 DA      0.0000
    650 N9        -3.7045    -1.3284  2208.6526 N.ar     676 DA      0.0000
    651 C8        -3.3256    -2.6406  2208.4579 C.ar     676 DA      0.0000
    652 N7        -2.0367    -2.7955  2208.2524 N.ar     676 DA      0.0000
    653 C5        -1.5263    -1.5141  2208.3270 C.ar     676 DA      0.0000
    654 C6        -0.2120    -1.0129  2208.1935 C.ar     676 DA      0.0000
    655 N6         0.8500    -1.7749  2207.9503 N.pl3    676 DA      0.0000
    656 N1        -0.0869     0.3451  2208.3423 N.ar     676 DA      0.0000
    657 C2        -1.1434     1.1415  2208.5948 C.ar     676 DA      0.0000
    658 N3        -2.4104     0.7396  2208.7337 N.ar     676 DA      0.0000
    659 C4        -2.5305    -0.5986  2208.5865 C.ar     676 DA      0.0000
    660 H5'       -8.4722    -2.6191  2210.8083 H        676 DA      0.0000
    661 H5''      -7.3052    -2.4119  2212.1423 H        676 DA      0.0000
    662 H4'       -7.0780    -0.4376  2210.9516 H        676 DA      0.0000
    663 H3'       -8.0479    -1.9259  2208.7190 H        676 DA      0.0000
    664 H2'       -6.0017    -2.2382  2207.7145 H        676 DA      0.0000
    665 H2''      -6.2313    -0.5373  2207.2031 H        676 DA      0.0000
    666 H1'       -4.9813     0.3046  2209.0133 H        676 DA      0.0000
    667 H8        -4.0237    -3.4645  2208.4728 H        676 DA      0.0000
    668 H2        -0.9493     2.1993  2208.6939 H        676 DA      0.0000
    669 H61        1.7353    -1.3878  2208.2443 H        676 DA      0.0000
    670 H62        0.7766    -2.6775  2207.5030 H        676 DA      0.0000
    671 P         -8.8180     0.5824  2207.5376 P.3      675 DT      0.0000
    672 OP1       -9.8517     1.6646  2207.5957 O.co2    675 DT      0.0000
    673 OP2       -9.2994    -0.7368  2207.0250 O.co2    675 DT      0.0000
    674 O5'       -7.4687     1.2627  2206.8344 O.3      675 DT      0.0000
    675 C5'       -6.7413     2.0221  2207.8468 C.3      675 DT      0.0000
    676 C4'       -5.8875     3.0422  2207.1638 C.3      675 DT      0.0000
    677 O4'       -4.5648     2.6327  2206.9834 O.3      675 DT      0.0000
    678 C3'       -6.4072     3.4781  2205.8026 C.3      675 DT      0.0000
    679 O3'       -6.1894     4.8689  2205.5353 O.3      675 DT      0.0000
    680 C2'       -5.6194     2.5109  2204.9092 C.3      675 DT      0.0000
    681 C1'       -4.2482     2.5505  2205.5492 C.3      675 DT      0.0000
    682 N1        -3.5139     1.2921  2205.3193 N.am     675 DT      0.0000
    683 C2        -2.1376     1.3682  2205.1976 C.2      675 DT      0.0000
    684 O2        -1.5540     2.4526  2205.2344 O.2      675 DT      0.0000
    685 N3        -1.4423     0.2015  2205.0302 N.am     675 DT      0.0000
    686 C4        -2.0653    -1.0065  2204.9817 C.2      675 DT      0.0000
    687 O4        -1.3451    -2.0325  2204.7962 O.2      675 DT      0.0000
    688 C5        -3.4794    -1.0646  2205.1301 C.2      675 DT      0.0000
    689 C7        -4.2052    -2.3880  2205.0780 C.3      675 DT      0.0000
    690 C6        -4.1434     0.0830  2205.3031 C.2      675 DT      0.0000
    691 H5'       -7.4490     2.5211  2208.5089 H        675 DT      0.0000
    692 H5''      -6.1113     1.3477  2208.4268 H        675 DT      0.0000
    693 H4'       -5.8682     3.9265  2207.8008 H        675 DT      0.0000
    694 H3'       -7.4717     3.2555  2205.7305 H        675 DT      0.0000
    695 H2'       -6.0433     1.5072  2204.9398 H        675 DT      0.0000
    696 H2''      -5.5773     2.8804  2203.8846 H        675 DT      0.0000
    697 H1'       -3.6751     3.4155  2205.2153 H        675 DT      0.0000
    698 H3        -0.4370     0.2386  2204.9401 H        675 DT      0.0000
    699 H6        -5.2149     0.0510  2205.4345 H        675 DT      0.0000
    700 H71       -4.5942    -2.5502  2204.0728 H        675 DT      0.0000
    701 H72       -5.0308    -2.3775  2205.7896 H        675 DT      0.0000
    702 H73       -3.5147    -3.1914  2205.3345 H        675 DT      0.0000
    703 P         -6.6291     5.3800  2204.0454 P.3      674 DT      0.0000
    704 OP1       -7.7997     6.3538  2204.1933 O.co2    674 DT      0.0000
    705 OP2       -7.1004     4.1212  2203.3755 O.co2    674 DT      0.0000
    706 O5'       -5.3908     6.0463  2203.3933 O.3      674 DT      0.0000
    707 C5'       -4.3727     6.7074  2204.1447 C.3      674 DT      0.0000
    708 C4'       -3.0840     6.5850  2203.3967 C.3      674 DT      0.0000
    709 O4'       -2.4608     5.3304  2203.3397 O.3      674 DT      0.0000
    710 C3'       -3.0624     7.0692  2201.9307 C.3      674 DT      0.0000
    711 O3'       -1.7360     7.5955  2201.8269 O.3      674 DT      0.0000
    712 C2'       -3.2193     5.7476  2201.1669 C.3      674 DT      0.0000
    713 C1'       -2.1834     4.9601  2201.9426 C.3      674 DT      0.0000
    714 N1        -2.2774     3.5013  2201.8365 N.am     674 DT      0.0000
    715 C2        -1.0535     2.8189  2201.8359 C.2      674 DT      0.0000
    716 O2         0.0160     3.4305  2201.8789 O.2      674 DT      0.0000
    717 N3        -1.1026     1.4555  2201.7824 N.am     674 DT      0.0000
    718 C4        -2.2742     0.7611  2201.7227 C.2      674 DT      0.0000
    719 O4        -2.2142    -0.5037  2201.6603 O.2      674 DT      0.0000
    720 C5        -3.5015     1.4784  2201.7309 C.2      674 DT      0.0000
    721 C7        -4.8107     0.7197  2201.6695 C.3      674 DT      0.0000
    722 C6        -3.4487     2.8119  2201.7974 C.2      674 DT      0.0000
    723 H5'       -4.6294     7.7597  2204.2669 H        674 DT      0.0000
    724 H5''      -4.2752     6.2374  2205.1233 H        674 DT      0.0000
    725 H4'       -2.3824     7.2315  2203.9240 H        674 DT      0.0000
    726 H3'       -3.8393     7.7988  2201.7020 H        674 DT      0.0000
    727 H2'       -2.9650     5.8437  2200.1113 H        674 DT      0.0000
    728 H2''      -4.2170     5.3289  2201.2985 H        674 DT      0.0000
    729 H1'       -1.1821     5.2885  2201.6636 H        674 DT      0.0000
    730 H3        -0.2344     0.9397  2201.7873 H        674 DT      0.0000
    731 H6        -4.3756     3.3656  2201.8211 H        674 DT      0.0000
    732 H71       -4.6092    -0.3504  2201.6207 H        674 DT      0.0000
    733 H72       -5.3663     1.0253  2200.7829 H        674 DT      0.0000
    734 H73       -5.3995     0.9382  2202.5604 H        674 DT      0.0000
    735 P         -1.1713     8.4775  2200.6807 P.3      673 DC      0.0000
    736 OP1       -0.4567     9.6851  2201.2898 O.co2    673 DC      0.0000
    737 OP2       -2.3609     8.9391  2199.8988 O.co2    673 DC      0.0000
    738 O5'       -0.1689     7.4274  2199.9413 O.3      673 DC      0.0000
    739 C5'        1.0731     7.1448  2200.6658 C.3      673 DC      0.0000
    740 C4'        2.1309     6.9271  2199.6153 C.3      673 DC      0.0000
    741 O4'        2.3660     5.5601  2199.3700 O.3      673 DC      0.0000
    742 C3'        1.8333     7.5512  2198.2508 C.3      673 DC      0.0000
    743 O3'        2.9858     8.0112  2197.5416 O.3      673 DC      0.0000
    744 C2'        1.0921     6.3955  2197.5647 C.3      673 DC      0.0000
    745 C1'        1.8187     5.1681  2198.1113 C.3      673 DC      0.0000
    746 N1         0.8323     4.0686  2198.2291 N.am     673 DC      0.0000
    747 C2         1.3328     2.7675  2198.2463 C.2      673 DC      0.0000
    748 O2         2.5500     2.5486  2198.1777 O.2      673 DC      0.0000
    749 N3         0.4248     1.7484  2198.3496 N.2      673 DC      0.0000
    750 C4        -0.9126     1.9770  2198.4203 C.2      673 DC      0.0000
    751 N4        -1.7586     0.9495  2198.5223 N.pl3    673 DC      0.0000
    752 C5        -1.3970     3.3146  2198.3952 C.2      673 DC      0.0000
    753 C6        -0.5044     4.3151  2198.3016 C.2      673 DC      0.0000
    754 H5'        1.3400     7.9888  2201.3017 H        673 DC      0.0000
    755 H5''       0.9563     6.2449  2201.2697 H        673 DC      0.0000
    756 H4'        3.0595     7.3627  2199.9840 H        673 DC      0.0000
    757 H3'        1.1437     8.3845  2198.3850 H        673 DC      0.0000
    758 H2'        1.1837     6.4572  2196.4803 H        673 DC      0.0000
    759 H2''       0.0431     6.3833  2197.8607 H        673 DC      0.0000
    760 H1'        2.6199     4.8773  2197.4319 H        673 DC      0.0000
    761 H5        -2.4557     3.5209  2198.4500 H        673 DC      0.0000
    762 H6        -0.8552     5.3364  2198.2835 H        673 DC      0.0000
    763 H41       -1.4044     0.0039  2198.5429 H        673 DC      0.0000
    764 H42       -2.7529     1.1177  2198.5786 H        673 DC      0.0000
    765 P          3.2078     7.9379  2195.9095 P.3      672 DA      0.0000
    766 OP1        4.2200     8.9935  2195.5201 O.co2    672 DA      0.0000
    767 OP2        1.8475     8.1363  2195.3395 O.co2    672 DA      0.0000
    768 O5'        3.8938     6.5059  2195.7440 O.3      672 DA      0.0000
    769 C5'        5.2906     6.3501  2196.2094 C.3      672 DA      0.0000
    770 C4'        5.7844     5.2123  2195.3322 C.3      672 DA      0.0000
    771 O4'        5.0216     4.0287  2195.5995 O.3      672 DA      0.0000
    772 C3'        5.5864     5.4699  2193.8278 C.3      672 DA      0.0000
    773 O3'        6.3760     4.5944  2193.0387 O.3      672 DA      0.0000
    774 C2'        4.1360     4.9882  2193.6403 C.3      672 DA      0.0000
    775 C1'        4.3439     3.6466  2194.3950 C.3      672 DA      0.0000
    776 N9         2.9997     3.0974  2194.5404 N.ar     672 DA      0.0000
    777 C8         1.8261     3.8140  2194.6132 C.ar     672 DA      0.0000
    778 N7         0.7625     3.0588  2194.7279 N.ar     672 DA      0.0000
    779 C5         1.2836     1.7526  2194.7215 C.ar     672 DA      0.0000
    780 C6         0.6362     0.4904  2194.8214 C.ar     672 DA      0.0000
    781 N6        -0.6858     0.3410  2194.9443 N.pl3    672 DA      0.0000
    782 N1         1.4795    -0.5791  2194.7863 N.ar     672 DA      0.0000
    783 C2         2.8213    -0.4279  2194.6674 C.ar     672 DA      0.0000
    784 N3         3.4936     0.7232  2194.5759 N.ar     672 DA      0.0000
    785 C4         2.6514     1.7709  2194.6035 C.ar     672 DA      0.0000
    786 H5'        5.8682     7.2592  2196.0427 H        672 DA      0.0000
    787 H5''       5.3165     6.0647  2197.2611 H        672 DA      0.0000
    788 H4'        6.8383     5.0231  2195.5361 H        672 DA      0.0000
    789 H3'        5.7209     6.5174  2193.5581 H        672 DA      0.0000
    790 H2'        3.4059     5.6386  2194.1219 H        672 DA      0.0000
    791 H2''       3.8985     4.8259  2192.5889 H        672 DA      0.0000
    792 H1'        4.9670     2.9732  2193.8065 H        672 DA      0.0000
    793 H8         1.7868     4.8927  2194.5792 H        672 DA      0.0000
    794 H2         3.4091    -1.3335  2194.6442 H        672 DA      0.0000
    795 H61       -1.2857     1.1531  2194.9690 H        672 DA      0.0000
    796 H62       -1.0853    -0.5842  2195.0124 H        672 DA      0.0000
    797 P          7.3236     5.1618  2191.8978 P.3      671 DC      0.0000
    798 OP1        8.5685     5.5503  2192.6781 O.co2    671 DC      0.0000
    799 OP2        6.7245     6.2875  2191.1722 O.co2    671 DC      0.0000
    800 O5'        7.4452     3.8437  2190.9219 O.3      671 DC      0.0000
    801 C5'        7.8511     2.5890  2191.5910 C.3      671 DC      0.0000
    802 C4'        7.1146     1.4442  2190.9469 C.3      671 DC      0.0000
    803 O4'        5.8842     1.1230  2191.5841 O.3      671 DC      0.0000
    804 C3'        6.7769     1.7055  2189.4691 C.3      671 DC      0.0000
    805 O3'        6.7934     0.5376  2188.6578 O.3      671 DC      0.0000
    806 C2'        5.2997     2.1914  2189.6347 C.3      671 DC      0.0000
    807 C1'        4.9123     0.9575  2190.5303 C.3      671 DC      0.0000
    808 N1         3.4949     1.0390  2190.7682 N.am     671 DC      0.0000
    809 C2         2.8105    -0.1232  2191.0854 C.2      671 DC      0.0000
    810 O2         3.2343    -1.2759  2191.2258 O.2      671 DC      0.0000
    811 N3         1.4603    -0.0387  2191.2836 N.2      671 DC      0.0000
    812 C4         0.7835     1.1442  2191.1676 C.2      671 DC      0.0000
    813 N4        -0.5406     1.1803  2191.3837 N.pl3    671 DC      0.0000
    814 C5         1.4993     2.3282  2190.8380 C.2      671 DC      0.0000
    815 C6         2.8192     2.2202  2190.6463 C.2      671 DC      0.0000
    816 H5'        8.9256     2.4439  2191.4795 H        671 DC      0.0000
    817 H5''       7.5962     2.6393  2192.6496 H        671 DC      0.0000
    818 H4'        7.7561     0.5642  2190.9937 H        671 DC      0.0000
    819 H3'        7.4081     2.4891  2189.0501 H        671 DC      0.0000
    820 H2'        5.2129     3.1470  2190.1519 H        671 DC      0.0000
    821 H2''       4.7621     2.1912  2188.6865 H        671 DC      0.0000
    822 H1'        5.1302     0.0390  2189.9854 H        671 DC      0.0000
    823 H5         0.9961     3.2794  2190.7458 H        671 DC      0.0000
    824 H6         3.3759     3.1074  2190.3830 H        671 DC      0.0000
    825 H41       -1.0364     0.3339  2191.6242 H        671 DC      0.0000
    826 H42       -1.0414     2.0540  2191.3057 H        671 DC      0.0000
    827 P         -7.9114    -6.1475  2225.2570 P.3      681 DG      0.0000
    828 OP1       -9.3750    -6.3912  2225.2554 O.co2    681 DG      0.0000
    829 OP2       -7.6436    -5.0649  2226.3127 O.co2    681 DG      0.0000
    830 O5'       -6.9712    -7.4186  2225.4354 O.3      681 DG      0.0000
    831 C5'       -6.2243    -8.1435  2224.4353 C.3      681 DG      0.0000
    832 C4'       -4.8036    -8.3063  2224.9342 C.3      681 DG      0.0000
    833 O4'       -3.9694    -7.2480  2224.5150 O.3      681 DG      0.0000
    834 C3'       -4.5897    -8.4607  2226.4264 C.3      681 DG      0.0000
    835 O3'       -3.8273    -9.6578  2226.7384 O.3      681 DG      0.0000
    836 C2'       -3.8954    -7.1798  2226.8482 C.3      681 DG      0.0000
    837 C1'       -3.1883    -6.7301  2225.5926 C.3      681 DG      0.0000
    838 N9        -3.0966    -5.2591  2225.5635 N.ar     681 DG      0.0000
    839 C8        -4.0741    -4.3197  2225.7924 C.ar     681 DG      0.0000
    840 N7        -3.6560    -3.0773  2225.7027 N.ar     681 DG      0.0000
    841 C5        -2.3060    -3.2044  2225.3857 C.ar     681 DG      0.0000
    842 C6        -1.2946    -2.2384  2225.1598 C.2      681 DG      0.0000
    843 O6        -1.3941    -1.0112  2225.1811 O.2      681 DG      0.0000
    844 N1        -0.0562    -2.7468  2224.8783 N.am     681 DG      0.0000
    845 C2         0.1887    -4.0166  2224.8176 C.2      681 DG      0.0000
    846 N2         1.4132    -4.2211  2224.5208 N.pl3    681 DG      0.0000
    847 N3        -0.7380    -5.0431  2225.0264 N.2      681 DG      0.0000
    848 C4        -1.9493    -4.5371  2225.2989 C.ar     681 DG      0.0000
    849 H5'       -6.6744    -9.1235  2224.2766 H        681 DG      0.0000
    850 H5''      -6.2234    -7.5839  2223.5000 H        681 DG      0.0000
    851 H4'       -4.4134    -9.2118  2224.4694 H        681 DG      0.0000
    852 H3'       -5.5597    -8.5185  2226.9203 H        681 DG      0.0000
    853 H2'       -4.6198    -6.4340  2227.1752 H        681 DG      0.0000
    854 H2''      -3.1735    -7.3814  2227.6397 H        681 DG      0.0000
    855 H1'       -2.1875    -7.1609  2225.5607 H        681 DG      0.0000
    856 H8        -5.0961    -4.5802  2226.0255 H        681 DG      0.0000
    857 H1         0.7023    -2.1015  2224.7099 H        681 DG      0.0000
    858 H21        2.0352    -3.4386  2224.3765 H        681 DG      0.0000
    859 H22        1.7600    -5.1653  2224.4304 H        681 DG      0.0000
    860 P         -3.2122    -9.9288  2228.1669 P.3      682 DT      0.0000
    861 OP1       -3.3090   -11.3427  2228.6786 O.co2    682 DT      0.0000
    862 OP2       -4.1424    -9.1158  2229.0856 O.co2    682 DT      0.0000
    863 O5'       -1.7948    -9.3020  2228.1955 O.3      682 DT      0.0000
    864 C5'       -0.5773   -10.0839  2228.0515 C.3      682 DT      0.0000
    865 C4'        0.5405    -9.0638  2228.1090 C.3      682 DT      0.0000
    866 O4'        0.0847    -7.7574  2227.8338 O.3      682 DT      0.0000
    867 C3'        1.2726    -8.9445  2229.4217 C.3      682 DT      0.0000
    868 O3'        2.6319    -9.3649  2229.2335 O.3      682 DT      0.0000
    869 C2'        1.1899    -7.4695  2229.8139 C.3      682 DT      0.0000
    870 C1'        1.0168    -6.8292  2228.4612 C.3      682 DT      0.0000
    871 N1         0.3443    -5.5335  2228.5578 N.am     682 DT      0.0000
    872 C2         1.1042    -4.4126  2228.3599 C.2      682 DT      0.0000
    873 O2         2.3086    -4.4656  2228.1217 O.2      682 DT      0.0000
    874 N3         0.4659    -3.2043  2228.4410 N.am     682 DT      0.0000
    875 C4        -0.8568    -3.0875  2228.6969 C.2      682 DT      0.0000
    876 O4        -1.3019    -1.9109  2228.7422 O.2      682 DT      0.0000
    877 C5        -1.6365    -4.2718  2228.8966 C.2      682 DT      0.0000
    878 C7        -3.1018    -4.1865  2229.1765 C.3      682 DT      0.0000
    879 C6        -1.0039    -5.4493  2228.8151 C.2      682 DT      0.0000
    880 H5'       -0.4837   -10.8034  2228.8649 H        682 DT      0.0000
    881 H5''      -0.5702   -10.5979  2227.0903 H        682 DT      0.0000
    882 H4'        1.2710    -9.3283  2227.3445 H        682 DT      0.0000
    883 H3'        0.7896    -9.5623  2230.1788 H        682 DT      0.0000
    884 H2'        0.3360    -7.2740  2230.4628 H        682 DT      0.0000
    885 H2''       2.1170    -7.1403  2230.2832 H        682 DT      0.0000
    886 H1'        1.9582    -6.7627  2227.9159 H        682 DT      0.0000
    887 H3         1.0070    -2.3627  2228.3035 H        682 DT      0.0000
    888 H6        -1.5689    -6.3590  2228.9555 H        682 DT      0.0000
    889 H71       -3.6596    -4.4248  2228.2709 H        682 DT      0.0000
    890 H72       -3.3511    -3.1763  2229.5012 H        682 DT      0.0000
    891 H73       -3.3635    -4.8956  2229.9618 H        682 DT      0.0000
    892 P          3.2323   -10.1694  2230.5135 P.3      683 DG      0.0000
    893 OP1        4.0982   -11.1988  2229.7984 O.co2    683 DG      0.0000
    894 OP2        2.1319   -10.7434  2231.2670 O.co2    683 DG      0.0000
    895 O5'        4.0673    -8.9062  2231.1230 O.3      683 DG      0.0000
    896 C5'        4.8049    -8.2354  2230.0324 C.3      683 DG      0.0000
    897 C4'        5.2799    -6.9107  2230.5524 C.3      683 DG      0.0000
    898 O4'        4.4161    -5.8205  2230.3718 O.3      683 DG      0.0000
    899 C3'        5.6280    -6.9571  2232.0604 C.3      683 DG      0.0000
    900 O3'        6.9833    -6.4723  2232.2193 O.3      683 DG      0.0000
    901 C2'        4.5378    -6.1340  2232.7130 C.3      683 DG      0.0000
    902 C1'        4.2378    -5.1028  2231.6315 C.3      683 DG      0.0000
    903 N9         2.9000    -4.5248  2231.8010 N.ar     683 DG      0.0000
    904 C8         1.7327    -5.1532  2232.1372 C.ar     683 DG      0.0000
    905 N7         0.6879    -4.3596  2232.2230 N.ar     683 DG      0.0000
    906 C5         1.2152    -3.1132  2231.8929 C.ar     683 DG      0.0000
    907 C6         0.5946    -1.8347  2231.7986 C.2      683 DG      0.0000
    908 O6        -0.5956    -1.5448  2231.9909 O.2      683 DG      0.0000
    909 N1         1.4505    -0.8105  2231.4636 N.am     683 DG      0.0000
    910 C2         2.7765    -1.0236  2231.2398 C.2      683 DG      0.0000
    911 N2         3.4567     0.0882  2230.9310 N.pl3    683 DG      0.0000
    912 N3         3.4012    -2.1969  2231.3108 N.2      683 DG      0.0000
    913 C4         2.5670    -3.1988  2231.6374 C.ar     683 DG      0.0000
    914 H5'        5.6579    -8.8440  2229.7319 H        683 DG      0.0000
    915 H5''       4.1433    -8.0813  2229.1800 H        683 DG      0.0000
    916 H4'        6.2024    -6.6748  2230.0218 H        683 DG      0.0000
    917 H3'        5.5670    -7.9859  2232.4152 H        683 DG      0.0000
    918 H2'        3.6611    -6.7420  2232.9360 H        683 DG      0.0000
    919 H2''       4.9096    -5.6486  2233.6154 H        683 DG      0.0000
    920 H1'        4.9773    -4.3042  2231.6904 H        683 DG      0.0000
    921 H8         1.6739    -6.2164  2232.3178 H        683 DG      0.0000
    922 H1         1.0842     0.1271  2231.3812 H        683 DG      0.0000
    923 H21        2.9774     0.9758  2230.8807 H        683 DG      0.0000
    924 H22        4.4488     0.0389  2230.7483 H        683 DG      0.0000
    925 P          7.7014    -6.4907  2233.6077 P.3      684 DA      0.0000
    926 OP1        8.4512    -7.7336  2233.9631 O.co2    684 DA      0.0000
    927 OP2        6.4094    -6.4441  2234.5035 O.co2    684 DA      0.0000
    928 O5'        8.3896    -5.0839  2233.8568 O.3      684 DA      0.0000
    929 C5'        8.7715    -4.1593  2232.8278 C.3      684 DA      0.0000
    930 C4'        8.2737    -2.8035  2233.3021 C.3      684 DA      0.0000
    931 O4'        6.8666    -2.7374  2233.2117 O.3      684 DA      0.0000
    932 C3'        8.6461    -2.4082  2234.7312 C.3      684 DA      0.0000
    933 O3'        9.1560    -1.0598  2234.7835 O.3      684 DA      0.0000
    934 C2'        7.3104    -2.5725  2235.4666 C.3      684 DA      0.0000
    935 C1'        6.3743    -2.0467  2234.3890 C.3      684 DA      0.0000
    936 N9         4.9643    -2.3785  2234.6174 N.ar     684 DA      0.0000
    937 C8         4.3711    -3.5900  2234.8332 C.ar     684 DA      0.0000
    938 N7         3.0688    -3.5237  2234.9982 N.ar     684 DA      0.0000
    939 C5         2.7841    -2.1736  2234.8580 C.ar     684 DA      0.0000
    940 C6         1.5639    -1.4647  2234.9059 C.ar     684 DA      0.0000
    941 N6         0.3727    -2.0263  2235.1257 N.pl3    684 DA      0.0000
    942 N1         1.6662    -0.1156  2234.7161 N.ar     684 DA      0.0000
    943 C2         2.8642     0.4743  2234.4984 C.ar     684 DA      0.0000
    944 N3         4.0514    -0.1280  2234.4401 N.ar     684 DA      0.0000
    945 C4         3.9317    -1.4550  2234.6270 C.ar     684 DA      0.0000
    946 H5'        8.3036    -4.4277  2231.8806 H        684 DA      0.0000
    947 H5''       9.8561    -4.1443  2232.7200 H        684 DA      0.0000
    948 H4'        8.6840    -2.0477  2232.6323 H        684 DA      0.0000
    949 H3'        9.3831    -3.1037  2235.1326 H        684 DA      0.0000
    950 H2'        7.1053    -3.6145  2235.7121 H        684 DA      0.0000
    951 H2''       7.2739    -1.9455  2236.3575 H        684 DA      0.0000
    952 H1'        6.4959    -0.9696  2234.2745 H        684 DA      0.0000
    953 H8         4.9224    -4.5182  2234.8653 H        684 DA      0.0000
    954 H2         2.8576     1.5451  2234.3570 H        684 DA      0.0000
    955 H61        0.1702    -3.0110  2235.0283 H        684 DA      0.0000
    956 H62       -0.4560    -1.4749  2234.9542 H        684 DA      0.0000
    957 P         10.2310    -0.5703  2235.9249 P.3      685 DA      0.0000
    958 OP1       11.5098    -0.1283  2235.2579 O.co2    685 DA      0.0000
    959 OP2       10.3379    -1.7869  2236.7558 O.co2    685 DA      0.0000
    960 O5'        9.5764     0.7842  2236.4557 O.3      685 DA      0.0000
    961 C5'        9.3470     1.9257  2235.6314 C.3      685 DA      0.0000
    962 C4'        8.1160     2.6454  2236.1537 C.3      685 DA      0.0000
    963 O4'        7.0046     1.7950  2236.1819 O.3      685 DA      0.0000
    964 C3'        8.2148     3.2994  2237.5210 C.3      685 DA      0.0000
    965 O3'        8.0671     4.7170  2237.4432 O.3      685 DA      0.0000
    966 C2'        7.1455     2.5769  2238.3498 C.3      685 DA      0.0000
    967 C1'        6.1739     2.0702  2237.3560 C.3      685 DA      0.0000
    968 N9         5.4044     0.8417  2237.6240 N.ar     685 DA      0.0000
    969 C8         5.8297    -0.4596  2237.7392 C.ar     685 DA      0.0000
    970 N7         4.8609    -1.3279  2237.9085 N.ar     685 DA      0.0000
    971 C5         3.7082    -0.5500  2237.8715 C.ar     685 DA      0.0000
    972 C6         2.3307    -0.8905  2237.9919 C.ar     685 DA      0.0000
    973 N6         1.8537    -2.1141  2238.1836 N.pl3    685 DA      0.0000
    974 N1         1.4501     0.1576  2237.8938 N.ar     685 DA      0.0000
    975 C2         1.9035     1.4308  2237.7047 C.ar     685 DA      0.0000
    976 N3         3.1698     1.8166  2237.5968 N.ar     685 DA      0.0000
    977 C4         4.0229     0.7767  2237.6887 C.ar     685 DA      0.0000
    978 H5'        9.1810     1.6101  2234.6014 H        685 DA      0.0000
    979 H5''      10.2089     2.5914  2235.6774 H        685 DA      0.0000
    980 H4'        7.8882     3.4380  2235.4410 H        685 DA      0.0000
    981 H3'        9.1938     3.0743  2237.9442 H        685 DA      0.0000
    982 H2'        7.5865     1.7525  2238.9100 H        685 DA      0.0000
    983 H2''       6.6591     3.2767  2239.0293 H        685 DA      0.0000
    984 H1'        5.4769     2.8714  2237.1099 H        685 DA      0.0000
    985 H8         6.8709    -0.7431  2237.6944 H        685 DA      0.0000
    986 H2         1.1544     2.2056  2237.6355 H        685 DA      0.0000
    987 H61        2.4339    -2.8738  2238.5098 H        685 DA      0.0000
    988 H62        0.8771    -2.2916  2237.9968 H        685 DA      0.0000
    989 P          8.8147     5.7991  2238.3994 P.3      686 DT      0.0000
    990 OP1        9.3154     6.9982  2237.6021 O.co2    686 DT      0.0000
    991 OP2        9.8161     5.1509  2239.2200 O.co2    686 DT      0.0000
    992 O5'        7.5437     6.4529  2239.2131 O.3      686 DT      0.0000
    993 C5'        6.4047     6.6379  2238.2680 C.3      686 DT      0.0000
    994 C4'        5.1930     6.2088  2239.0557 C.3      686 DT      0.0000
    995 O4'        5.1067     4.8147  2239.2477 O.3      686 DT      0.0000
    996 C3'        5.1760     6.8124  2240.4723 C.3      686 DT      0.0000
    997 O3'        4.3453     7.9586  2240.4740 O.3      686 DT      0.0000
    998 C2'        4.6993     5.6729  2241.3696 C.3      686 DT      0.0000
    999 C1'        4.1704     4.6881  2240.4050 C.3      686 DT      0.0000
   1000 N1         4.1166     3.2751  2240.7447 N.am     686 DT      0.0000
   1001 C2         2.8528     2.7096  2240.8827 C.2      686 DT      0.0000
   1002 O2         1.8568     3.4161  2240.7946 O.2      686 DT      0.0000
   1003 N3         2.7692     1.3738  2241.1367 N.am     686 DT      0.0000
   1004 C4         3.8705     0.5755  2241.2568 C.2      686 DT      0.0000
   1005 O4         3.7097    -0.6607  2241.5120 O.2      686 DT      0.0000
   1006 C5         5.1612     1.1759  2241.0852 C.2      686 DT      0.0000
   1007 C7         6.4058     0.3368  2241.1727 C.3      686 DT      0.0000
   1008 C6         5.2380     2.4933  2240.8295 C.2      686 DT      0.0000
   1009 H5'        6.3191     7.6819  2237.9664 H        686 DT      0.0000
   1010 H5''       6.5321     6.0006  2237.3930 H        686 DT      0.0000
   1011 H4'        4.3000     6.5417  2238.5266 H        686 DT      0.0000
   1012 H3'        6.1887     7.0982  2240.7567 H        686 DT      0.0000
   1013 H2'        5.5262     5.2541  2241.9430 H        686 DT      0.0000
   1014 H2''       3.9084     6.0172  2242.0360 H        686 DT      0.0000
   1015 H1'        3.1781     5.0086  2240.0876 H        686 DT      0.0000
   1016 H3         1.8552     0.9569  2241.2404 H        686 DT      0.0000
   1017 H6         6.2080     2.9465  2240.6873 H        686 DT      0.0000
   1018 H71        6.1335    -0.6969  2241.3858 H        686 DT      0.0000
   1019 H72        6.9422     0.3830  2240.2250 H        686 DT      0.0000
   1020 H73        7.0444     0.7161  2241.9705 H        686 DT      0.0000
   1021 P          4.1622     9.0317  2241.5806 P.3      687 DT      0.0000
   1022 OP1        3.6306    10.3535  2240.9686 O.co2    687 DT      0.0000
   1023 OP2        5.4955     9.2125  2242.2106 O.co2    687 DT      0.0000
   1024 O5'        2.9360     8.4934  2242.4629 O.3      687 DT      0.0000
   1025 C5'        1.6711     8.5586  2241.7512 C.3      687 DT      0.0000
   1026 C4'        0.6958     7.6589  2242.4273 C.3      687 DT      0.0000
   1027 O4'        1.0684     6.2866  2242.4040 O.3      687 DT      0.0000
   1028 C3'        0.4146     8.0161  2243.8940 C.3      687 DT      0.0000
   1029 O3'       -0.9734     7.9401  2244.1580 O.3      687 DT      0.0000
   1030 C2'        1.1511     6.8718  2244.6303 C.3      687 DT      0.0000
   1031 C1'        0.7103     5.7382  2243.7267 C.3      687 DT      0.0000
   1032 N1         1.4392     4.5192  2244.0244 N.am     687 DT      0.0000
   1033 C2         0.7371     3.3260  2244.0793 C.2      687 DT      0.0000
   1034 O2        -0.4802     3.3414  2243.8908 O.2      687 DT      0.0000
   1035 N3         1.4312     2.1794  2244.3452 N.am     687 DT      0.0000
   1036 C4         2.7765     2.1770  2244.5522 C.2      687 DT      0.0000
   1037 O4         3.3537     1.0746  2244.7755 O.2      687 DT      0.0000
   1038 C5         3.4891     3.4097  2244.4871 C.2      687 DT      0.0000
   1039 C7         4.9732     3.4884  2244.6970 C.3      687 DT      0.0000
   1040 C6         2.7918     4.5263  2244.2260 C.2      687 DT      0.0000
   1041 H5'        1.2957     9.5818  2241.7636 H        687 DT      0.0000
   1042 H5''       1.8143     8.2341  2240.7205 H        687 DT      0.0000
   1043 H4'       -0.2480     7.7450  2241.8889 H        687 DT      0.0000
   1044 H3'        0.8221     8.9924  2244.1564 H        687 DT      0.0000
   1045 H2'        2.2327     7.0064  2244.6291 H        687 DT      0.0000
   1046 H2''       0.7693     6.7423  2245.6430 H        687 DT      0.0000
   1047 H1'       -0.3650     5.5765  2243.8024 H        687 DT      0.0000
   1048 H3         0.9290     1.3042  2244.3896 H        687 DT      0.0000
   1049 H6         3.3193     5.4672  2244.1729 H        687 DT      0.0000
   1050 H71        5.3659     2.4912  2244.8960 H        687 DT      0.0000
   1051 H72        5.4456     3.8926  2243.8018 H        687 DT      0.0000
   1052 H73        5.1863     4.1386  2245.5454 H        687 DT      0.0000
   1053 P         -2.0663     8.8882  2244.7660 P.3      688 DC      0.0000
   1054 OP1       -3.0181     9.3920  2243.6980 O.co2    688 DC      0.0000
   1055 OP2       -1.3184     9.9245  2245.5009 O.co2    688 DC      0.0000
   1056 O5'       -2.8692     7.7335  2245.5920 O.3      688 DC      0.0000
   1057 C5'       -3.1444     6.7066  2244.5697 C.3      688 DC      0.0000
   1058 C4'       -3.8252     5.5629  2245.2662 C.3      688 DC      0.0000
   1059 O4'       -2.9637     4.4952  2245.5131 O.3      688 DC      0.0000
   1060 C3'       -4.5477     5.9295  2246.5577 C.3      688 DC      0.0000
   1061 O3'       -5.9180     5.5596  2246.4780 O.3      688 DC      0.0000
   1062 C2'       -3.6715     5.2411  2247.6065 C.3      688 DC      0.0000
   1063 C1'       -3.1011     4.0696  2246.9100 C.3      688 DC      0.0000
   1064 N1        -1.7211     3.7019  2247.2421 N.am     688 DC      0.0000
   1065 C2        -1.4961     2.3510  2247.4980 C.2      688 DC      0.0000
   1066 O2        -2.4226     1.5347  2247.5024 O.2      688 DC      0.0000
   1067 N3        -0.2071     1.9652  2247.7718 N.2      688 DC      0.0000
   1068 C4         0.8216     2.8607  2247.7619 C.2      688 DC      0.0000
   1069 N4         2.0328     2.3902  2248.0387 N.pl3    688 DC      0.0000
   1070 C5         0.5809     4.2242  2247.4839 C.2      688 DC      0.0000
   1071 C6        -0.6908     4.5877  2247.2191 C.2      688 DC      0.0000
   1072 H5'       -3.7952     7.1140  2243.7961 H        688 DC      0.0000
   1073 H5''      -2.2092     6.3659  2244.1255 H        688 DC      0.0000
   1074 H4'       -4.5872     5.1929  2244.5803 H        688 DC      0.0000
   1075 H3'       -4.4838     7.0081  2246.7010 H        688 DC      0.0000
   1076 H2'       -2.8799     5.9099  2247.9444 H        688 DC      0.0000
   1077 H2''      -4.2788     4.9182  2248.4520 H        688 DC      0.0000
   1078 H1'       -3.7637     3.2079  2246.9910 H        688 DC      0.0000
   1079 H5         1.3832     4.9472  2247.4833 H        688 DC      0.0000
   1080 H6        -0.8978     5.6204  2246.9800 H        688 DC      0.0000
   1081 H41        2.1598     1.4083  2248.2379 H        688 DC      0.0000
   1082 H42        2.8266     3.0146  2248.0500 H        688 DC      0.0000
   1083 P         -7.1162     6.0992  2247.4301 P.3      689 DA      0.0000
   1084 OP1       -8.4027     5.9759  2246.6363 O.co2    689 DA      0.0000
   1085 OP2       -6.8204     7.5045  2247.7756 O.co2    689 DA      0.0000
   1086 O5'       -7.0787     5.0870  2248.7271 O.3      689 DA      0.0000
   1087 C5'       -7.1237     3.6574  2248.4318 C.3      689 DA      0.0000
   1088 C4'       -6.9820     2.8605  2249.6871 C.3      689 DA      0.0000
   1089 O4'       -5.6726     2.3371  2249.9293 O.3      689 DA      0.0000
   1090 C3'       -7.2743     3.6194  2250.9924 C.3      689 DA      0.0000
   1091 O3'       -7.5459     2.6661  2252.0223 O.3      689 DA      0.0000
   1092 C2'       -5.9003     4.2849  2251.2070 C.3      689 DA      0.0000
   1093 C1'       -5.0612     3.0158  2251.0237 C.3      689 DA      0.0000
   1094 N9        -3.6575     3.3797  2250.9294 N.ar     689 DA      0.0000
   1095 C8        -3.0608     4.6046  2250.8135 C.ar     689 DA      0.0000
   1096 N7        -1.7402     4.5824  2250.7949 N.ar     689 DA      0.0000
   1097 C5        -1.4452     3.2306  2250.9025 C.ar     689 DA      0.0000
   1098 C6        -0.2159     2.5273  2250.9370 C.ar     689 DA      0.0000
   1099 N6         0.9741     3.0942  2250.8517 N.pl3    689 DA      0.0000
   1100 N1        -0.3026     1.1710  2251.0696 N.ar     689 DA      0.0000
   1101 C2        -1.5162     0.5413  2251.1497 C.ar     689 DA      0.0000
   1102 N3        -2.7090     1.1310  2251.1199 N.ar     689 DA      0.0000
   1103 C4        -2.6038     2.4769  2250.9969 C.ar     689 DA      0.0000
   1104 H5'       -8.0770     3.4180  2247.9607 H        689 DA      0.0000
   1105 H5''      -6.3113     3.4042  2247.7505 H        689 DA      0.0000
   1106 H4'       -7.6723     2.0191  2249.6282 H        689 DA      0.0000
   1107 H3'       -8.0764     4.3486  2250.8787 H        689 DA      0.0000
   1108 H2'       -5.6808     5.0440  2250.4562 H        689 DA      0.0000
   1109 H2''      -5.8041     4.6838  2252.2168 H        689 DA      0.0000
   1110 H1'       -5.1881     2.3991  2251.9133 H        689 DA      0.0000
   1111 H8        -3.6269     5.5216  2250.7425 H        689 DA      0.0000
   1112 H2        -1.5041    -0.5343  2251.2462 H        689 DA      0.0000
   1113 H61        1.9172     2.7808  2251.0318 H        689 DA      0.0000
   1114 H62        0.9314     4.0529  2250.5370 H        689 DA      0.0000
   1115 P         -8.9830     1.9767  2252.1627 P.3      690 DC      0.0000
   1116 OP1       -9.7980     2.0583  2250.9176 O.co2    690 DC      0.0000
   1117 OP2       -9.5898     2.7382  2253.3056 O.co2    690 DC      0.0000
   1118 O5'       -8.6318     0.4565  2252.4459 O.3      690 DC      0.0000
   1119 C5'       -8.3046    -0.4604  2251.3582 C.3      690 DC      0.0000
   1120 C4'       -7.3737    -1.4535  2252.0631 C.3      690 DC      0.0000
   1121 O4'       -6.1844    -0.7659  2252.3751 O.3      690 DC      0.0000
   1122 C3'       -7.9353    -2.0002  2253.3730 C.3      690 DC      0.0000
   1123 O3'       -7.9013    -3.4438  2253.4409 O.3      690 DC      0.0000
   1124 C2'       -7.0825    -1.3209  2254.4552 C.3      690 DC      0.0000
   1125 C1'       -5.7826    -1.1524  2253.7791 C.3      690 DC      0.0000
   1126 N1        -4.8749    -0.0638  2254.1319 N.am     690 DC      0.0000
   1127 C2        -3.5203    -0.3902  2254.1050 C.2      690 DC      0.0000
   1128 O2        -3.1180    -1.5281  2253.8981 O.2      690 DC      0.0000
   1129 N3        -2.6320     0.6082  2254.3581 N.2      690 DC      0.0000
   1130 C4        -3.0196     1.8854  2254.5915 C.2      690 DC      0.0000
   1131 N4        -2.0561     2.7752  2254.8224 N.pl3    690 DC      0.0000
   1132 C5        -4.4044     2.2087  2254.5981 C.2      690 DC      0.0000
   1133 C6        -5.2751     1.2184  2254.3486 C.2      690 DC      0.0000
   1134 H5'       -9.1962    -0.9553  2250.9733 H        690 DC      0.0000
   1135 H5''      -7.7778     0.0615  2250.5592 H        690 DC      0.0000
   1136 H4'       -7.1491    -2.2812  2251.3905 H        690 DC      0.0000
   1137 H3'       -8.9679    -1.6675  2253.4789 H        690 DC      0.0000
   1138 H2'       -7.5047    -0.3578  2254.7422 H        690 DC      0.0000
   1139 H2''      -6.9805    -1.9692  2255.3255 H        690 DC      0.0000
   1140 H1'       -5.2429    -2.0994  2253.7658 H        690 DC      0.0000
   1141 H5        -4.7431     3.2148  2254.7966 H        690 DC      0.0000
   1142 H6        -6.3302     1.4472  2254.3189 H        690 DC      0.0000
   1143 H41       -1.0885     2.4860  2254.8114 H        690 DC      0.0000
   1144 H42       -2.2931     3.7392  2255.0086 H        690 DC      0.0000
   1145 P          8.2227     2.1056  2256.4005 P.3      690 DG      0.0000
   1146 OP1        9.6432     2.5384  2256.5792 O.co2    690 DG      0.0000
   1147 OP2        7.4932     2.8868  2255.3156 O.co2    690 DG      0.0000
   1148 O5'        8.1715     0.4735  2256.1932 O.3      690 DG      0.0000
   1149 C5'        7.6851    -0.3707  2257.2890 C.3      690 DG      0.0000
   1150 C4'        6.8743    -1.4984  2256.6547 C.3      690 DG      0.0000
   1151 O4'        5.5134    -1.1772  2256.5589 O.3      690 DG      0.0000
   1152 C3'        7.3237    -1.8859  2255.2484 C.3      690 DG      0.0000
   1153 O3'        7.2916    -3.3070  2254.9814 O.3      690 DG      0.0000
   1154 C2'        6.3393    -1.1201  2254.3461 C.3      690 DG      0.0000
   1155 C1'        5.0659    -1.2152  2255.1699 C.3      690 DG      0.0000
   1156 N9         4.1713    -0.0775  2254.8966 N.ar     690 DG      0.0000
   1157 C8         4.5102     1.2455  2254.7400 C.ar     690 DG      0.0000
   1158 N7         3.4904     2.0326  2254.5215 N.ar     690 DG      0.0000
   1159 C5         2.3991     1.1722  2254.5463 C.ar     690 DG      0.0000
   1160 C6         1.0086     1.4166  2254.3899 C.2      690 DG      0.0000
   1161 O6         0.4677     2.5140  2254.1930 O.2      690 DG      0.0000
   1162 N1         0.2241     0.2930  2254.4768 N.am     690 DG      0.0000
   1163 C2         0.7366    -0.9424  2254.6975 C.2      690 DG      0.0000
   1164 N2        -0.1456    -1.9360  2254.7608 N.pl3    690 DG      0.0000
   1165 N3         2.0351    -1.2266  2254.8552 N.2      690 DG      0.0000
   1166 C4         2.8044    -0.1238  2254.7719 C.ar     690 DG      0.0000
   1167 H5'        8.5264    -0.7820  2257.8468 H        690 DG      0.0000
   1168 H5''       7.0497     0.2144  2257.9539 H        690 DG      0.0000
   1169 H4'        6.9676    -2.3782  2257.2914 H        690 DG      0.0000
   1170 H3'        8.3330    -1.5112  2255.0779 H        690 DG      0.0000
   1171 H2'        6.6483    -0.0846  2254.2034 H        690 DG      0.0000
   1172 H2''       6.2194    -1.6246  2253.3873 H        690 DG      0.0000
   1173 H1'        4.5536    -2.1552  2254.9647 H        690 DG      0.0000
   1174 H8         5.5281     1.6023  2254.7927 H        690 DG      0.0000
   1175 H1        -0.7756     0.3911  2254.3720 H        690 DG      0.0000
   1176 H21       -1.1307    -1.7448  2254.6457 H        690 DG      0.0000
   1177 H22        0.1696    -2.8815  2254.9240 H        690 DG      0.0000
   1178 P          7.0157    -3.7204  2253.4579 P.3      689 DT      0.0000
   1179 OP1        7.6264    -5.0392  2253.0670 O.co2    689 DT      0.0000
   1180 OP2        7.6781    -2.5927  2252.7574 O.co2    689 DT      0.0000
   1181 O5'        5.4205    -3.7928  2253.3270 O.3      689 DT      0.0000
   1182 C5'        4.7953    -5.0888  2253.5946 C.3      689 DT      0.0000
   1183 C4'        3.4867    -5.1539  2252.8376 C.3      689 DT      0.0000
   1184 O4'        2.8024    -3.9140  2252.8103 O.3      689 DT      0.0000
   1185 C3'        3.6592    -5.5627  2251.3829 C.3      689 DT      0.0000
   1186 O3'        2.6158    -6.4297  2250.8878 O.3      689 DT      0.0000
   1187 C2'        3.6781    -4.2341  2250.6600 C.3      689 DT      0.0000
   1188 C1'        2.5897    -3.5133  2251.4381 C.3      689 DT      0.0000
   1189 N1         2.8445    -2.0721  2251.2868 N.am     689 DT      0.0000
   1190 C2         1.7366    -1.2376  2251.3936 C.2      689 DT      0.0000
   1191 O2         0.6201    -1.7080  2251.5833 O.2      689 DT      0.0000
   1192 N3         1.9539     0.1066  2251.2734 N.am     689 DT      0.0000
   1193 C4         3.1976     0.6193  2251.0559 C.2      689 DT      0.0000
   1194 O4         3.3012     1.8868  2250.9583 O.2      689 DT      0.0000
   1195 C5         4.3126    -0.2603  2250.9495 C.2      689 DT      0.0000
   1196 C7         5.6894     0.2944  2250.7205 C.3      689 DT      0.0000
   1197 C6         4.0946    -1.5722  2251.0712 C.2      689 DT      0.0000
   1198 H5'        5.4537    -5.8908  2253.2609 H        689 DT      0.0000
   1199 H5''       4.6060    -5.1907  2254.6633 H        689 DT      0.0000
   1200 H4'        2.8454    -5.8879  2253.3255 H        689 DT      0.0000
   1201 H3'        4.6243    -6.0538  2251.2589 H        689 DT      0.0000
   1202 H2'        4.6426    -3.7347  2250.7516 H        689 DT      0.0000
   1203 H2''       3.3971    -4.3539  2249.6136 H        689 DT      0.0000
   1204 H1'        1.5944    -3.7863  2251.0875 H        689 DT      0.0000
   1205 H3         1.1695     0.7385  2251.3481 H        689 DT      0.0000
   1206 H6         4.9289    -2.2539  2250.9971 H        689 DT      0.0000
   1207 H71        5.6371     1.3810  2250.6518 H        689 DT      0.0000
   1208 H72        6.3366     0.0139  2251.5514 H        689 DT      0.0000
   1209 H73        6.0940    -0.1093  2249.7924 H        689 DT      0.0000
   1210 P          3.3589    -7.6932  2250.1094 P.3      688 DG      0.0000
   1211 OP1        3.5637    -8.8895  2250.9806 O.co2    688 DG      0.0000
   1212 OP2        4.6058    -6.9975  2249.7038 O.co2    688 DG      0.0000
   1213 O5'        2.2421    -8.0662  2249.0286 O.3      688 DG      0.0000
   1214 C5'        1.0889    -8.8368  2249.4520 C.3      688 DG      0.0000
   1215 C4'       -0.1138    -8.0157  2249.0043 C.3      688 DG      0.0000
   1216 O4'        0.1177    -6.6477  2249.2750 O.3      688 DG      0.0000
   1217 C3'       -0.4430    -8.1392  2247.5166 C.3      688 DG      0.0000
   1218 O3'       -1.7778    -8.5646  2247.3081 O.3      688 DG      0.0000
   1219 C2'       -0.0924    -6.7791  2246.9399 C.3      688 DG      0.0000
   1220 C1'       -0.2633    -5.8597  2248.1260 C.3      688 DG      0.0000
   1221 N9         0.5974    -4.6801  2248.0025 N.ar     688 DG      0.0000
   1222 C8         1.9534    -4.6325  2247.8436 C.ar     688 DG      0.0000
   1223 N7         2.4331    -3.4152  2247.7655 N.ar     688 DG      0.0000
   1224 C5         1.3128    -2.6009  2247.9030 C.ar     688 DG      0.0000
   1225 C6         1.1637    -1.1889  2247.9125 C.2      688 DG      0.0000
   1226 O6         2.0529    -0.3495  2247.8135 O.2      688 DG      0.0000
   1227 N1        -0.1227    -0.7542  2248.0615 N.am     688 DG      0.0000
   1228 C2        -1.1769    -1.6252  2248.1944 C.2      688 DG      0.0000
   1229 N2        -2.3801    -1.0668  2248.3300 N.pl3    688 DG      0.0000
   1230 N3        -1.1059    -2.9602  2248.1987 N.2      688 DG      0.0000
   1231 C4         0.1747    -3.3760  2248.0480 C.ar     688 DG      0.0000
   1232 H5'        1.0847    -9.8160  2248.9733 H        688 DG      0.0000
   1233 H5''       1.0871    -8.9474  2250.5364 H        688 DG      0.0000
   1234 H4'       -0.9833    -8.3378  2249.5773 H        688 DG      0.0000
   1235 H3'        0.2254    -8.8802  2247.0780 H        688 DG      0.0000
   1236 H2'        0.9340    -6.7607  2246.5735 H        688 DG      0.0000
   1237 H2''      -0.7873    -6.5103  2246.1443 H        688 DG      0.0000
   1238 H1'       -1.3057    -5.5533  2248.2130 H        688 DG      0.0000
   1239 H8         2.5725    -5.5157  2247.7875 H        688 DG      0.0000
   1240 H1        -0.3046     0.2392  2248.0743 H        688 DG      0.0000
   1241 H21       -2.4729    -0.0611  2248.3310 H        688 DG      0.0000
   1242 H22       -3.1987    -1.6495  2248.4318 H        688 DG      0.0000
   1243 P         -2.9942    -8.0479  2246.4418 P.3      687 DA      0.0000
   1244 OP1       -4.3045    -8.2078  2247.2231 O.co2    687 DA      0.0000
   1245 OP2       -3.0028    -8.8980  2245.2491 O.co2    687 DA      0.0000
   1246 O5'       -2.7788    -6.4425  2246.2670 O.3      687 DA      0.0000
   1247 C5'       -3.3107    -5.6935  2247.4234 C.3      687 DA      0.0000
   1248 C4'       -4.4197    -4.8173  2246.8956 C.3      687 DA      0.0000
   1249 O4'       -4.0003    -3.4948  2246.6734 O.3      687 DA      0.0000
   1250 C3'       -4.9730    -5.2992  2245.5551 C.3      687 DA      0.0000
   1251 O3'       -6.3747    -5.1950  2245.4799 O.3      687 DA      0.0000
   1252 C2'       -4.1513    -4.5014  2244.5586 C.3      687 DA      0.0000
   1253 C1'       -3.6818    -3.2705  2245.2824 C.3      687 DA      0.0000
   1254 N9        -2.2478    -3.0208  2245.0569 N.ar     687 DA      0.0000
   1255 C8        -1.2291    -3.9301  2244.8705 C.ar     687 DA      0.0000
   1256 N7        -0.0490    -3.3886  2244.6746 N.ar     687 DA      0.0000
   1257 C5        -0.3060    -2.0261  2244.7615 C.ar     687 DA      0.0000
   1258 C6         0.5487    -0.9040  2244.6559 C.ar     687 DA      0.0000
   1259 N6         1.8502    -0.9883  2244.4434 N.pl3    687 DA      0.0000
   1260 N1        -0.0454     0.3149  2244.7796 N.ar     687 DA      0.0000
   1261 C2        -1.3876     0.4321  2245.0041 C.ar     687 DA      0.0000
   1262 N3        -2.2443    -0.5805  2245.1200 N.ar     687 DA      0.0000
   1263 C4        -1.6421    -1.7867  2244.9839 C.ar     687 DA      0.0000
   1264 H5'       -3.7006    -6.3838  2248.1715 H        687 DA      0.0000
   1265 H5''      -2.5253    -5.0766  2247.8601 H        687 DA      0.0000
   1266 H4'       -5.2312    -4.8072  2247.6233 H        687 DA      0.0000
   1267 H3'       -4.7085    -6.3506  2245.4420 H        687 DA      0.0000
   1268 H2'       -4.7649    -4.2233  2243.7017 H        687 DA      0.0000
   1269 H2''      -3.2945    -5.0885  2244.2280 H        687 DA      0.0000
   1270 H1'       -4.2500    -2.4121  2244.9242 H        687 DA      0.0000
   1271 H8        -1.3880    -4.9983  2244.8844 H        687 DA      0.0000
   1272 H2        -1.7879     1.4310  2245.0954 H        687 DA      0.0000
   1273 H61        2.4791    -0.2636  2244.7588 H        687 DA      0.0000
   1274 H62        2.2226    -1.7914  2243.9572 H        687 DA      0.0000
   1275 P         -7.3298    -4.7693  2244.2953 P.3      686 DA      0.0000
   1276 OP1       -8.7819    -4.5589  2244.8152 O.co2    686 DA      0.0000
   1277 OP2       -7.3124    -5.9383  2243.3617 O.co2    686 DA      0.0000
   1278 O5'       -6.8542    -3.3540  2243.7927 O.3      686 DA      0.0000
   1279 C5'       -7.5290    -2.1632  2244.2485 C.3      686 DA      0.0000
   1280 C4'       -6.8787    -0.9909  2243.5466 C.3      686 DA      0.0000
   1281 O4'       -5.4884    -1.0915  2243.4258 O.3      686 DA      0.0000
   1282 C3'       -7.4210    -0.7465  2242.1390 C.3      686 DA      0.0000
   1283 O3'       -8.1230     0.5105  2242.1076 O.3      686 DA      0.0000
   1284 C2'       -6.1956    -0.9179  2241.2395 C.3      686 DA      0.0000
   1285 C1'       -5.0559    -0.5423  2242.1372 C.3      686 DA      0.0000
   1286 N9        -3.7636    -1.1502  2241.8377 N.ar     686 DA      0.0000
   1287 C8        -3.4478    -2.4789  2241.6429 C.ar     686 DA      0.0000
   1288 N7        -2.1677    -2.6951  2241.4375 N.ar     686 DA      0.0000
   1289 C5        -1.5968    -1.4396  2241.5120 C.ar     686 DA      0.0000
   1290 C6        -0.2601    -1.0016  2241.3785 C.ar     686 DA      0.0000
   1291 N6         0.7643    -1.8134  2241.1353 N.pl3    686 DA      0.0000
   1292 N1        -0.0703     0.3488  2241.5274 N.ar     686 DA      0.0000
   1293 C2        -1.0876     1.1948  2241.7799 C.ar     686 DA      0.0000
   1294 N3        -2.3723     0.8538  2241.9187 N.ar     686 DA      0.0000
   1295 C4        -2.5562    -0.4772  2241.7715 C.ar     686 DA      0.0000
   1296 H5'       -8.5875    -2.2119  2243.9934 H        686 DA      0.0000
   1297 H5''      -7.4120    -2.0606  2245.3273 H        686 DA      0.0000
   1298 H4'       -7.0908    -0.0994  2244.1367 H        686 DA      0.0000
   1299 H3'       -8.1306    -1.5398  2241.9040 H        686 DA      0.0000
   1300 H2'       -6.1016    -1.9493  2240.8996 H        686 DA      0.0000
   1301 H2''      -6.2498    -0.2394  2240.3881 H        686 DA      0.0000
   1302 H1'       -4.9611     0.5419  2242.1984 H        686 DA      0.0000
   1303 H8        -4.1844    -3.2686  2241.6579 H        686 DA      0.0000
   1304 H2        -0.8433     2.2421  2241.8789 H        686 DA      0.0000
   1305 H61        1.6672    -1.4690  2241.4294 H        686 DA      0.0000
   1306 H62        0.6480    -2.7115  2240.6881 H        686 DA      0.0000
   1307 P         -8.7801     1.0024  2240.7226 P.3      685 DT      0.0000
   1308 OP1       -9.7611     2.1327  2240.7808 O.co2    685 DT      0.0000
   1309 OP2       -9.3240    -0.2923  2240.2100 O.co2    685 DT      0.0000
   1310 O5'       -7.4000     1.6175  2240.0195 O.3      685 DT      0.0000
   1311 C5'       -6.6371     2.3414  2241.0318 C.3      685 DT      0.0000
   1312 C4'       -5.7356     3.3196  2240.3489 C.3      685 DT      0.0000
   1313 O4'       -4.4340     2.8475  2240.1684 O.3      685 DT      0.0000
   1314 C3'       -6.2339     3.7798  2238.9876 C.3      685 DT      0.0000
   1315 O3'       -5.9501     5.1586  2238.7203 O.3      685 DT      0.0000
   1316 C2'       -5.4932     2.7762  2238.0943 C.3      685 DT      0.0000
   1317 C1'       -4.1217     2.7503  2238.7343 C.3      685 DT      0.0000
   1318 N1        -3.4483     1.4582  2238.5043 N.am     685 DT      0.0000
   1319 C2        -2.0699     1.4687  2238.3827 C.2      685 DT      0.0000
   1320 O2        -1.4352     2.5240  2238.4195 O.2      685 DT      0.0000
   1321 N3        -1.4310     0.2701  2238.2153 N.am     685 DT      0.0000
   1322 C4        -2.1110    -0.9068  2238.1668 C.2      685 DT      0.0000
   1323 O4        -1.4405    -1.9660  2237.9812 O.2      685 DT      0.0000
   1324 C5        -3.5262    -0.8974  2238.3152 C.2      685 DT      0.0000
   1325 C7        -4.3143    -2.1846  2238.2631 C.3      685 DT      0.0000
   1326 C6        -4.1347     0.2806  2238.4881 C.2      685 DT      0.0000
   1327 H5'       -7.3202     2.8736  2241.6939 H        685 DT      0.0000
   1328 H5''      -6.0401     1.6377  2241.6118 H        685 DT      0.0000
   1329 H4'       -5.6742     4.2020  2240.9859 H        685 DT      0.0000
   1330 H3'       -7.3079     3.6083  2238.9156 H        685 DT      0.0000
   1331 H2'       -5.9645     1.7938  2238.1248 H        685 DT      0.0000
   1332 H2''      -5.4335     3.1432  2237.0697 H        685 DT      0.0000
   1333 H1'       -3.5079     3.5870  2238.4003 H        685 DT      0.0000
   1334 H3        -0.4251     0.2591  2238.1251 H        685 DT      0.0000
   1335 H6        -5.2065     0.2998  2238.6195 H        685 DT      0.0000
   1336 H71       -4.7106    -2.3281  2237.2579 H        685 DT      0.0000
   1337 H72       -5.1385    -2.1347  2238.9746 H        685 DT      0.0000
   1338 H73       -3.6629    -3.0201  2238.5196 H        685 DT      0.0000
   1339 P         -6.3649     5.6902  2237.2304 P.3      684 DT      0.0000
   1340 OP1       -7.4877     6.7187  2237.3784 O.co2    684 DT      0.0000
   1341 OP2       -6.8957     4.4553  2236.5606 O.co2    684 DT      0.0000
   1342 O5'       -5.0962     6.2966  2236.5783 O.3      684 DT      0.0000
   1343 C5'       -4.0477     6.9084  2237.3297 C.3      684 DT      0.0000
   1344 C4'       -2.7663     6.7247  2236.5818 C.3      684 DT      0.0000
   1345 O4'       -2.2037     5.4417  2236.5248 O.3      684 DT      0.0000
   1346 C3'       -2.7217     7.2073  2235.1157 C.3      684 DT      0.0000
   1347 O3'       -1.3717     7.6697  2235.0119 O.3      684 DT      0.0000
   1348 C2'       -2.9414     5.8946  2234.3519 C.3      684 DT      0.0000
   1349 C1'       -1.9442     5.0586  2235.1277 C.3      684 DT      0.0000
   1350 N1        -2.1078     3.6059  2235.0215 N.am     684 DT      0.0000
   1351 C2        -0.9178     2.8659  2235.0209 C.2      684 DT      0.0000
   1352 O2         0.1797     3.4259  2235.0639 O.2      684 DT      0.0000
   1353 N3        -1.0319     1.5065  2234.9674 N.am     684 DT      0.0000
   1354 C4        -2.2353     0.8688  2234.9077 C.2      684 DT      0.0000
   1355 O4        -2.2357    -0.3975  2234.8453 O.2      684 DT      0.0000
   1356 C5        -3.4270     1.6438  2234.9159 C.2      684 DT      0.0000
   1357 C7        -4.7709     0.9484  2234.8545 C.3      684 DT      0.0000
   1358 C6        -3.3106     2.9733  2234.9824 C.2      684 DT      0.0000
   1359 H5'       -4.2539     7.9717  2237.4520 H        684 DT      0.0000
   1360 H5''      -3.9727     6.4343  2238.3083 H        684 DT      0.0000
   1361 H4'       -2.0346     7.3369  2237.1090 H        684 DT      0.0000
   1362 H3'       -3.4628     7.9731  2234.8870 H        684 DT      0.0000
   1363 H2'       -2.6829     5.9786  2233.2964 H        684 DT      0.0000
   1364 H2''      -3.9580     5.5240  2234.4835 H        684 DT      0.0000
   1365 H1'       -0.9285     5.3389  2234.8487 H        684 DT      0.0000
   1366 H3        -0.1893     0.9498  2234.9723 H        684 DT      0.0000
   1367 H6        -4.2101     3.5706  2235.0061 H        684 DT      0.0000
   1368 H71       -4.6206    -0.1301  2234.8057 H        684 DT      0.0000
   1369 H72       -5.3112     1.2802  2233.9679 H        684 DT      0.0000
   1370 H73       -5.3485     1.1947  2235.7454 H        684 DT      0.0000
   1371 P         -0.7655     8.5237  2233.8657 P.3      683 DC      0.0000
   1372 OP1        0.0059     9.6959  2234.4748 O.co2    683 DC      0.0000
   1373 OP2       -1.9318     9.0415  2233.0839 O.co2    683 DC      0.0000
   1374 O5'        0.1857     7.4270  2233.1263 O.3      683 DC      0.0000
   1375 C5'        1.4127     7.0855  2233.8508 C.3      683 DC      0.0000
   1376 C4'        2.4590     6.8176  2232.8003 C.3      683 DC      0.0000
   1377 O4'        2.6286     5.4409  2232.5550 O.3      683 DC      0.0000
   1378 C3'        2.1915     7.4551  2231.4359 C.3      683 DC      0.0000
   1379 O3'        3.3646     7.8596  2230.7266 O.3      683 DC      0.0000
   1380 C2'        1.3960     6.3361  2230.7497 C.3      683 DC      0.0000
   1381 C1'        2.0632     5.0754  2231.2963 C.3      683 DC      0.0000
   1382 N1         1.0254     4.0242  2231.4141 N.am     683 DC      0.0000
   1383 C2         1.4633     2.7007  2231.4314 C.2      683 DC      0.0000
   1384 O2         2.6687     2.4240  2231.3627 O.2      683 DC      0.0000
   1385 N3         0.5078     1.7262  2231.5346 N.2      683 DC      0.0000
   1386 C4        -0.8173     2.0183  2231.6054 C.2      683 DC      0.0000
   1387 N4        -1.7113     1.0324  2231.7073 N.pl3    683 DC      0.0000
   1388 C5        -1.2373     3.3775  2231.5802 C.2      683 DC      0.0000
   1389 C6        -0.2980     4.3342  2231.4866 C.2      683 DC      0.0000
   1390 H5'        1.7196     7.9158  2234.4868 H        683 DC      0.0000
   1391 H5''       1.2531     6.1921  2234.4547 H        683 DC      0.0000
   1392 H4'        3.4073     7.2084  2233.1691 H        683 DC      0.0000
   1393 H3'        1.5425     8.3204  2231.5700 H        683 DC      0.0000
   1394 H2'        1.4904     6.3934  2229.6654 H        683 DC      0.0000
   1395 H2''       0.3476     6.3740  2231.0457 H        683 DC      0.0000
   1396 H1'        2.8497     4.7468  2230.6170 H        683 DC      0.0000
   1397 H5        -2.2849     3.6341  2231.6350 H        683 DC      0.0000
   1398 H6        -0.5996     5.3711  2231.4685 H        683 DC      0.0000
   1399 H41       -1.4026     0.0709  2231.7280 H        683 DC      0.0000
   1400 H42       -2.6965     1.2478  2231.7637 H        683 DC      0.0000
   1401 P          3.5829     7.7758  2229.0946 P.3      682 DA      0.0000
   1402 OP1        4.6443     8.7819  2228.7051 O.co2    682 DA      0.0000
   1403 OP2        2.2336     8.0389  2228.5245 O.co2    682 DA      0.0000
   1404 O5'        4.1998     6.3128  2228.9291 O.3      682 DA      0.0000
   1405 C5'        5.5875     6.0905  2229.3945 C.3      682 DA      0.0000
   1406 C4'        6.0265     4.9304  2228.5172 C.3      682 DA      0.0000
   1407 O4'        5.2081     3.7845  2228.7845 O.3      682 DA      0.0000
   1408 C3'        5.8410     5.1972  2227.0128 C.3      682 DA      0.0000
   1409 O3'        6.5880     4.2850  2226.2237 O.3      682 DA      0.0000
   1410 C2'        4.3692     4.7852  2226.8253 C.3      682 DA      0.0000
   1411 C1'        4.5129     3.4352  2227.5800 C.3      682 DA      0.0000
   1412 N9         3.1441     2.9508  2227.7254 N.ar     682 DA      0.0000
   1413 C8         2.0060     3.7225  2227.7983 C.ar     682 DA      0.0000
   1414 N7         0.9076     3.0190  2227.9129 N.ar     682 DA      0.0000
   1415 C5         1.3658     1.6893  2227.9065 C.ar     682 DA      0.0000
   1416 C6         0.6589     0.4595  2228.0065 C.ar     682 DA      0.0000
   1417 N6        -0.6688     0.3733  2228.1293 N.pl3    682 DA      0.0000
   1418 N1         1.4502    -0.6490  2227.9713 N.ar     682 DA      0.0000
   1419 C2         2.7977    -0.5620  2227.8524 C.ar     682 DA      0.0000
   1420 N3         3.5241     0.5557  2227.7610 N.ar     682 DA      0.0000
   1421 C4         2.7329     1.6424  2227.7885 C.ar     682 DA      0.0000
   1422 H5'        6.2079     6.9710  2229.2277 H        682 DA      0.0000
   1423 H5''       5.5998     5.8042  2230.4461 H        682 DA      0.0000
   1424 H4'        7.0702     4.6911  2228.7212 H        682 DA      0.0000
   1425 H3'        6.0253     6.2370  2226.7432 H        682 DA      0.0000
   1426 H2'        3.6710     5.4697  2227.3070 H        682 DA      0.0000
   1427 H2''       4.1243     4.6344  2225.7740 H        682 DA      0.0000
   1428 H1'        5.1032     2.7329  2226.9916 H        682 DA      0.0000
   1429 H8         2.0182     4.8019  2227.7642 H        682 DA      0.0000
   1430 H2         3.3416    -1.4947  2227.8292 H        682 DA      0.0000
   1431 H61       -1.2292     1.2131  2228.1541 H        682 DA      0.0000
   1432 H62       -1.1119    -0.5317  2228.1974 H        682 DA      0.0000
   1433 P          7.5616     4.8065  2225.0828 P.3      681 DC      0.0000
   1434 OP1        8.8236     5.1352  2225.8631 O.co2    681 DC      0.0000
   1435 OP2        7.0168     5.9595  2224.3572 O.co2    681 DC      0.0000
   1436 O5'        7.6201     3.4841  2224.1070 O.3      681 DC      0.0000
   1437 C5'        7.9657     2.2114  2224.7760 C.3      681 DC      0.0000
   1438 C4'        7.1754     1.1031  2224.1319 C.3      681 DC      0.0000
   1439 O4'        5.9310     0.8410  2224.7691 O.3      681 DC      0.0000
   1440 C3'        6.8505     1.3802  2222.6541 C.3      681 DC      0.0000
   1441 O3'        6.8113     0.2128  2221.8428 O.3      681 DC      0.0000
   1442 C2'        5.3982     1.9361  2222.8198 C.3      681 DC      0.0000
   1443 C1'        4.9524     0.7221  2223.7154 C.3      681 DC      0.0000
   1444 N1         3.5405     0.8711  2223.9533 N.am     681 DC      0.0000
   1445 C2         2.8015    -0.2571  2224.2704 C.2      681 DC      0.0000
   1446 O2         3.1698    -1.4287  2224.4109 O.2      681 DC      0.0000
   1447 N3         1.4568    -0.1083  2224.4686 N.2      681 DC      0.0000
   1448 C4         0.8372     1.1056  2224.3526 C.2      681 DC      0.0000
   1449 N4        -0.4837     1.2048  2224.5687 N.pl3    681 DC      0.0000
   1450 C5         1.6087     2.2541  2224.0230 C.2      681 DC      0.0000
   1451 C6         2.9219     2.0831  2223.8313 C.2      681 DC      0.0000
   1452 H5'        9.0321     2.0153  2224.6645 H        681 DC      0.0000
   1453 H5''       7.7134     2.2739  2225.8346 H        681 DC      0.0000
   1454 H4'        7.7741     0.1935  2224.1787 H        681 DC      0.0000
   1455 H3'        7.5185     2.1328  2222.2351 H        681 DC      0.0000
   1456 H2'        5.3571     2.8947  2223.3369 H        681 DC      0.0000
   1457 H2''       4.8613     1.9615  2221.8715 H        681 DC      0.0000
   1458 H1'        5.1262    -0.2058  2223.1704 H        681 DC      0.0000
   1459 H5         1.1514     3.2282  2223.9309 H        681 DC      0.0000
   1460 H6         3.5203     2.9428  2223.5680 H        681 DC      0.0000
   1461 H41       -1.0192     0.3829  2224.8092 H        681 DC      0.0000
   1462 H42       -0.9423     2.1013  2224.4908 H        681 DC      0.0000
   1463 P         -8.1957    -5.7630  2258.4420 P.3      691 DG      0.0000
   1464 OP1       -9.6693    -5.9367  2258.4405 O.co2    691 DG      0.0000
   1465 OP2       -7.8765    -4.6944  2259.4977 O.co2    691 DG      0.0000
   1466 O5'       -7.3172    -7.0776  2258.6204 O.3      691 DG      0.0000
   1467 C5'       -6.6058    -7.8373  2257.6204 C.3      691 DG      0.0000
   1468 C4'       -5.1944    -8.0677  2258.1192 C.3      691 DG      0.0000
   1469 O4'       -4.3107    -7.0504  2257.7001 O.3      691 DG      0.0000
   1470 C3'       -4.9882    -8.2321  2259.6114 C.3      691 DG      0.0000
   1471 O3'       -4.2837    -9.4642  2259.9234 O.3      691 DG      0.0000
   1472 C2'       -4.2335    -6.9858  2260.0333 C.3      691 DG      0.0000
   1473 C1'       -3.5058    -6.5704  2258.7776 C.3      691 DG      0.0000
   1474 N9        -3.3440    -5.1054  2258.7486 N.ar     691 DG      0.0000
   1475 C8        -4.2756    -4.1204  2258.9775 C.ar     691 DG      0.0000
   1476 N7        -3.7986    -2.8994  2258.8878 N.ar     691 DG      0.0000
   1477 C5        -2.4563    -3.0907  2258.5707 C.ar     691 DG      0.0000
   1478 C6        -1.3999    -2.1741  2258.3448 C.2      691 DG      0.0000
   1479 O6        -1.4408    -0.9436  2258.3661 O.2      691 DG      0.0000
   1480 N1        -0.1872    -2.7410  2258.0633 N.am     691 DG      0.0000
   1481 C2        -0.0031    -4.0211  2258.0027 C.2      691 DG      0.0000
   1482 N2         1.2102    -4.2837  2257.7059 N.pl3    691 DG      0.0000
   1483 N3        -0.9777    -5.0021  2258.2114 N.2      691 DG      0.0000
   1484 C4        -2.1635    -4.4389  2258.4840 C.ar     691 DG      0.0000
   1485 H5'       -7.1021    -8.7947  2257.4617 H        691 DG      0.0000
   1486 H5''      -6.5782    -7.2783  2256.6850 H        691 DG      0.0000
   1487 H4'       -4.8479    -8.9907  2257.6545 H        691 DG      0.0000
   1488 H3'       -5.9598    -8.2435  2260.1054 H        691 DG      0.0000
   1489 H2'       -4.9215    -6.2062  2260.3603 H        691 DG      0.0000
   1490 H2''      -3.5221    -7.2216  2260.8248 H        691 DG      0.0000
   1491 H1'       -2.5267    -7.0484  2258.7457 H        691 DG      0.0000
   1492 H8        -5.3088    -4.3318  2259.2105 H        691 DG      0.0000
   1493 H1         0.6013    -2.1326  2257.8949 H        691 DG      0.0000
   1494 H21        1.8688    -3.5317  2257.5615 H        691 DG      0.0000
   1495 H22        1.5116    -5.2434  2257.6154 H        691 DG      0.0000
   1496 P         -3.6823    -9.7642  2261.3519 P.3      692 DT      0.0000
   1497 OP1       -3.8464   -11.1720  2261.8636 O.co2    692 DT      0.0000
   1498 OP2       -4.5726    -8.9078  2262.2706 O.co2    692 DT      0.0000
   1499 O5'       -2.2365    -9.2058  2261.3805 O.3      692 DT      0.0000
   1500 C5'       -1.0577   -10.0449  2261.2365 C.3      692 DT      0.0000
   1501 C4'        0.1075    -9.0793  2261.2940 C.3      692 DT      0.0000
   1502 O4'       -0.2855    -7.7527  2261.0189 O.3      692 DT      0.0000
   1503 C3'        0.8444    -8.9950  2262.6068 C.3      692 DT      0.0000
   1504 O3'        2.1821    -9.4798  2262.4185 O.3      692 DT      0.0000
   1505 C2'        0.8321    -7.5178  2262.9990 C.3      692 DT      0.0000
   1506 C1'        0.6898    -6.8700  2261.6462 C.3      692 DT      0.0000
   1507 N1         0.0799    -5.5436  2261.7429 N.am     692 DT      0.0000
   1508 C2         0.8924    -4.4603  2261.5449 C.2      692 DT      0.0000
   1509 O2         2.0929    -4.5706  2261.3068 O.2      692 DT      0.0000
   1510 N3         0.3125    -3.2229  2261.6260 N.am     692 DT      0.0000
   1511 C4        -1.0031    -3.0431  2261.8819 C.2      692 DT      0.0000
   1512 O4        -1.3916    -1.8466  2261.9272 O.2      692 DT      0.0000
   1513 C5        -1.8384    -4.1889  2262.0816 C.2      692 DT      0.0000
   1514 C7        -3.2980    -4.0337  2262.3615 C.3      692 DT      0.0000
   1515 C6        -1.2627    -5.3952  2262.0001 C.2      692 DT      0.0000
   1516 H5'       -0.9986   -10.7680  2262.0500 H        692 DT      0.0000
   1517 H5''      -1.0752   -10.5586  2260.2753 H        692 DT      0.0000
   1518 H4'        0.8245    -9.3784  2260.5295 H        692 DT      0.0000
   1519 H3'        0.3325    -9.5890  2263.3638 H        692 DT      0.0000
   1520 H2'       -0.0114    -7.2818  2263.6478 H        692 DT      0.0000
   1521 H2''       1.7739    -7.2332  2263.4682 H        692 DT      0.0000
   1522 H1'        1.6333    -6.8484  2261.1009 H        692 DT      0.0000
   1523 H3         0.8931    -2.4080  2261.4885 H        692 DT      0.0000
   1524 H6        -1.8705    -6.2770  2262.1405 H        692 DT      0.0000
   1525 H71       -3.8666    -4.2452  2261.4560 H        692 DT      0.0000
   1526 H72       -3.4988    -3.0128  2262.6863 H        692 DT      0.0000
   1527 H73       -3.5933    -4.7296  2263.1468 H        692 DT      0.0000
   1528 P          2.7435   -10.3120  2263.6985 P.3      693 DG      0.0000
   1529 OP1        3.5592   -11.3816  2262.9834 O.co2    693 DG      0.0000
   1530 OP2        1.6169   -10.8329  2264.4520 O.co2    693 DG      0.0000
   1531 O5'        3.6378    -9.0901  2264.3080 O.3      693 DG      0.0000
   1532 C5'        4.4065    -8.4553  2263.2174 C.3      693 DG      0.0000
   1533 C4'        4.9442    -7.1548  2263.7374 C.3      693 DG      0.0000
   1534 O4'        4.1334    -6.0246  2263.5569 O.3      693 DG      0.0000
   1535 C3'        5.2896    -7.2176  2265.2455 C.3      693 DG      0.0000
   1536 O3'        6.6666    -6.7981  2265.4043 O.3      693 DG      0.0000
   1537 C2'        4.2400    -6.3435  2265.8981 C.3      693 DG      0.0000
   1538 C1'        3.9895    -5.2991  2264.8165 C.3      693 DG      0.0000
   1539 N9         2.6808    -4.6580  2264.9860 N.ar     693 DG      0.0000
   1540 C8         1.4849    -5.2300  2265.3222 C.ar     693 DG      0.0000
   1541 N7         0.4791    -4.3875  2265.4080 N.ar     693 DG      0.0000
   1542 C5         1.0653    -3.1676  2265.0780 C.ar     693 DG      0.0000
   1543 C6         0.5064    -1.8610  2264.9836 C.2      693 DG      0.0000
   1544 O6        -0.6686    -1.5146  2265.1760 O.2      693 DG      0.0000
   1545 N1         1.4102    -0.8788  2264.6486 N.am     693 DG      0.0000
   1546 C2         2.7245    -1.1550  2264.4248 C.2      693 DG      0.0000
   1547 N2         3.4569    -0.0768  2264.1160 N.pl3    693 DG      0.0000
   1548 N3         3.2925    -2.3566  2264.4959 N.2      693 DG      0.0000
   1549 C4         2.4114    -3.3176  2264.8224 C.ar     693 DG      0.0000
   1550 H5'        5.2295    -9.1038  2262.9169 H        693 DG      0.0000
   1551 H5''       3.7530    -8.2697  2262.3650 H        693 DG      0.0000
   1552 H4'        5.8769    -6.9631  2263.2069 H        693 DG      0.0000
   1553 H3'        5.1796    -8.2424  2265.6003 H        693 DG      0.0000
   1554 H2'        3.3353    -6.9090  2266.1210 H        693 DG      0.0000
   1555 H2''       4.6345    -5.8764  2266.8005 H        693 DG      0.0000
   1556 H1'        4.7663    -4.5368  2264.8754 H        693 DG      0.0000
   1557 H8         1.3754    -6.2892  2265.5029 H        693 DG      0.0000
   1558 H1         1.0890     0.0753  2264.5663 H        693 DG      0.0000
   1559 H21        3.0206     0.8327  2264.0658 H        693 DG      0.0000
   1560 H22        4.4456    -0.1734  2263.9333 H        693 DG      0.0000
   1561 P          7.3830    -6.8507  2266.7928 P.3      694 DA      0.0000
   1562 OP1        8.0726    -8.1280  2267.1481 O.co2    694 DA      0.0000
   1563 OP2        6.0947    -6.7425  2267.6885 O.co2    694 DA      0.0000
   1564 O5'        8.1375    -5.4783  2267.0419 O.3      694 DA      0.0000
   1565 C5'        8.5631    -4.5730  2266.0128 C.3      694 DA      0.0000
   1566 C4'        8.1305    -3.1951  2266.4872 C.3      694 DA      0.0000
   1567 O4'        6.7282    -3.0619  2266.3968 O.3      694 DA      0.0000
   1568 C3'        8.5213    -2.8180  2267.9162 C.3      694 DA      0.0000
   1569 O3'        9.0950    -1.4954  2267.9685 O.3      694 DA      0.0000
   1570 C2'        7.1793    -2.9183  2268.6517 C.3      694 DA      0.0000
   1571 C1'        6.2694    -2.3485  2267.5741 C.3      694 DA      0.0000
   1572 N9         4.8452    -2.6126  2267.8025 N.ar     694 DA      0.0000
   1573 C8         4.1949    -3.7944  2268.0182 C.ar     694 DA      0.0000
   1574 N7         2.8972    -3.6661  2268.1832 N.ar     694 DA      0.0000
   1575 C5         2.6773    -2.3040  2268.0430 C.ar     694 DA      0.0000
   1576 C6         1.4922    -1.5377  2268.0910 C.ar     694 DA      0.0000
   1577 N6         0.2756    -2.0417  2268.3107 N.pl3    694 DA      0.0000
   1578 N1         1.6587    -0.1950  2267.9012 N.ar     694 DA      0.0000
   1579 C2         2.8836     0.3371  2267.6834 C.ar     694 DA      0.0000
   1580 N3         4.0406    -0.3212  2267.6252 N.ar     694 DA      0.0000
   1581 C4         3.8578    -1.6410  2267.8120 C.ar     694 DA      0.0000
   1582 H5'        8.0829    -4.8188  2265.0657 H        694 DA      0.0000
   1583 H5''       9.6472    -4.6099  2265.9051 H        694 DA      0.0000
   1584 H4'        8.5764    -2.4597  2265.8174 H        694 DA      0.0000
   1585 H3'        9.2244    -3.5478  2268.3176 H        694 DA      0.0000
   1586 H2'        6.9248    -3.9494  2268.8971 H        694 DA      0.0000
   1587 H2''       7.1728    -2.2904  2269.5426 H        694 DA      0.0000
   1588 H1'        6.4422    -1.2784  2267.4595 H        694 DA      0.0000
   1589 H8         4.7012    -4.7479  2268.0503 H        694 DA      0.0000
   1590 H2         2.9281     1.4070  2267.5420 H        694 DA      0.0000
   1591 H61        0.0263    -3.0157  2268.2133 H        694 DA      0.0000
   1592 H62       -0.5258    -1.4515  2268.1392 H        694 DA      0.0000
   1593 P         10.1922    -1.0578  2269.1099 P.3      695 DA      0.0000
   1594 OP1       11.4905    -0.6773  2268.4429 O.co2    695 DA      0.0000
   1595 OP2       10.2409    -2.2781  2269.9409 O.co2    695 DA      0.0000
   1596 O5'        9.6029     0.3264  2269.6408 O.3      695 DA      0.0000
   1597 C5'        9.4283     1.4776  2268.8164 C.3      695 DA      0.0000
   1598 C4'        8.2329     2.2552  2269.3387 C.3      695 DA      0.0000
   1599 O4'        7.0823     1.4588  2269.3669 O.3      695 DA      0.0000
   1600 C3'        8.3629     2.9037  2270.7061 C.3      695 DA      0.0000
   1601 O3'        8.2829     4.3267  2270.6282 O.3      695 DA      0.0000
   1602 C2'        7.2603     2.2331  2271.5348 C.3      695 DA      0.0000
   1603 C1'        6.2656     1.7733  2270.5410 C.3      695 DA      0.0000
   1604 N9         5.4385     0.5829  2270.8090 N.ar     695 DA      0.0000
   1605 C8         5.8012    -0.7372  2270.9242 C.ar     695 DA      0.0000
   1606 N7         4.7920    -1.5584  2271.0935 N.ar     695 DA      0.0000
   1607 C5         3.6777    -0.7262  2271.0565 C.ar     695 DA      0.0000
   1608 C6         2.2856    -1.0007  2271.1770 C.ar     695 DA      0.0000
   1609 N6         1.7507    -2.2001  2271.3686 N.pl3    695 DA      0.0000
   1610 N1         1.4560     0.0882  2271.0788 N.ar     695 DA      0.0000
   1611 C2         1.9696     1.3383  2270.8897 C.ar     695 DA      0.0000
   1612 N3         3.2529     1.6633  2270.7819 N.ar     695 DA      0.0000
   1613 C4         4.0553     0.5839  2270.8737 C.ar     695 DA      0.0000
   1614 H5'        9.2474     1.1703  2267.7864 H        695 DA      0.0000
   1615 H5''      10.3209     2.1014  2268.8624 H        695 DA      0.0000
   1616 H4'        8.0432     3.0577  2268.6260 H        695 DA      0.0000
   1617 H3'        9.3300     2.6322  2271.1293 H        695 DA      0.0000
   1618 H2'        7.6614     1.3885  2272.0951 H        695 DA      0.0000
   1619 H2''       6.8079     2.9552  2272.2144 H        695 DA      0.0000
   1620 H1'        5.6076     2.6068  2270.2949 H        695 DA      0.0000
   1621 H8         6.8276    -1.0700  2270.8794 H        695 DA      0.0000
   1622 H2         1.2583     2.1480  2270.8206 H        695 DA      0.0000
   1623 H61        2.2940    -2.9866  2271.6948 H        695 DA      0.0000
   1624 H62        0.7668    -2.3309  2271.1818 H        695 DA      0.0000
   1625 P          9.0813     5.3720  2271.5844 P.3      696 DT      0.0000
   1626 OP1        9.6387     6.5457  2270.7871 O.co2    696 DT      0.0000
   1627 OP2       10.0506     4.6767  2272.4051 O.co2    696 DT      0.0000
   1628 O5'        7.8429     6.0857  2272.3982 O.3      696 DT      0.0000
   1629 C5'        6.7141     6.3248  2271.4531 C.3      696 DT      0.0000
   1630 C4'        5.4833     5.9540  2272.2408 C.3      696 DT      0.0000
   1631 O4'        5.3306     4.5656  2272.4328 O.3      696 DT      0.0000
   1632 C3'        5.4951     6.5577  2273.6574 C.3      696 DT      0.0000
   1633 O3'        4.7201     7.7423  2273.6590 O.3      696 DT      0.0000
   1634 C2'        4.9646     5.4423  2274.5546 C.3      696 DT      0.0000
   1635 C1'        4.3893     4.4838  2273.5900 C.3      696 DT      0.0000
   1636 N1         4.2681     3.0750  2273.9298 N.am     696 DT      0.0000
   1637 C2         2.9788     2.5704  2274.0677 C.2      696 DT      0.0000
   1638 O2         2.0177     3.3236  2273.9797 O.2      696 DT      0.0000
   1639 N3         2.8316     1.2402  2274.3217 N.am     696 DT      0.0000
   1640 C4         3.8936     0.3902  2274.4418 C.2      696 DT      0.0000
   1641 O4         3.6740    -0.8369  2274.6970 O.2      696 DT      0.0000
   1642 C5         5.2114     0.9283  2274.2703 C.2      696 DT      0.0000
   1643 C7         6.4146     0.0308  2274.3578 C.3      696 DT      0.0000
   1644 C6         5.3510     2.2405  2274.0145 C.2      696 DT      0.0000
   1645 H5'        6.6785     7.3716  2271.1514 H        696 DT      0.0000
   1646 H5''       6.8109     5.6821  2270.5780 H        696 DT      0.0000
   1647 H4'        4.6072     6.3291  2271.7117 H        696 DT      0.0000
   1648 H3'        6.5203     6.7948  2273.9417 H        696 DT      0.0000
   1649 H2'        5.7706     4.9844  2275.1280 H        696 DT      0.0000
   1650 H2''       4.1910     5.8238  2275.2210 H        696 DT      0.0000
   1651 H1'        3.4134     4.8513  2273.2727 H        696 DT      0.0000
   1652 H3         1.8987     0.8673  2274.4254 H        696 DT      0.0000
   1653 H6         6.3415     2.6470  2273.8723 H        696 DT      0.0000
   1654 H71        6.0933    -0.9887  2274.5708 H        696 DT      0.0000
   1655 H72        6.9526     0.0514  2273.4100 H        696 DT      0.0000
   1656 H73        7.0706     0.3792  2275.1556 H        696 DT      0.0000
   1657 P          4.5884     8.8229  2274.7657 P.3      697 DT      0.0000
   1658 OP1        4.1205    10.1685  2274.1536 O.co2    697 DT      0.0000
   1659 OP2        5.9288     8.9398  2275.3956 O.co2    697 DT      0.0000
   1660 O5'        3.3379     8.3437  2275.6480 O.3      697 DT      0.0000
   1661 C5'        2.0776     8.4691  2274.9362 C.3      697 DT      0.0000
   1662 C4'        1.0604     7.6169  2275.6124 C.3      697 DT      0.0000
   1663 O4'        1.3672     6.2284  2275.5891 O.3      697 DT      0.0000
   1664 C3'        0.7966     7.9872  2277.0790 C.3      697 DT      0.0000
   1665 O3'       -0.5935     7.9775  2277.3431 O.3      697 DT      0.0000
   1666 C2'        1.4776     6.8090  2277.8153 C.3      697 DT      0.0000
   1667 C1'        0.9833     5.6978  2276.9118 C.3      697 DT      0.0000
   1668 N1         1.6531     4.4453  2277.2095 N.am     697 DT      0.0000
   1669 C2         0.8950     3.2871  2277.2643 C.2      697 DT      0.0000
   1670 O2        -0.3202     3.3605  2277.0759 O.2      697 DT      0.0000
   1671 N3         1.5335     2.1086  2277.5302 N.am     697 DT      0.0000
   1672 C4         2.8772     2.0421  2277.7372 C.2      697 DT      0.0000
   1673 O4         3.4012     0.9134  2277.9605 O.2      697 DT      0.0000
   1674 C5         3.6478     3.2394  2277.6722 C.2      697 DT      0.0000
   1675 C7         5.1340     3.2471  2277.8821 C.3      697 DT      0.0000
   1676 C6         3.0045     4.3880  2277.4110 C.2      697 DT      0.0000
   1677 H5'        1.7514     9.5091  2274.9486 H        697 DT      0.0000
   1678 H5''       2.2051     8.1382  2273.9055 H        697 DT      0.0000
   1679 H4'        0.1218     7.7480  2275.0739 H        697 DT      0.0000
   1680 H3'        1.2502     8.9429  2277.3414 H        697 DT      0.0000
   1681 H2'        2.5644     6.8919  2277.8141 H        697 DT      0.0000
   1682 H2''       1.0901     6.6979  2278.8281 H        697 DT      0.0000
   1683 H1'       -0.0985     5.5876  2276.9874 H        697 DT      0.0000
   1684 H3         0.9902     1.2584  2277.5746 H        697 DT      0.0000
   1685 H6         3.5764     5.3026  2277.3580 H        697 DT      0.0000
   1686 H71        5.4787     2.2323  2278.0810 H        697 DT      0.0000
   1687 H72        5.6251     3.6284  2276.9868 H        697 DT      0.0000
   1688 H73        5.3778     3.8865  2278.7305 H        697 DT      0.0000
   1689 P         -1.6399     8.9766  2277.9510 P.3      698 DC      0.0000
   1690 OP1       -2.5666     9.5253  2276.8831 O.co2    698 DC      0.0000
   1691 OP2       -0.8434     9.9761  2278.6860 O.co2    698 DC      0.0000
   1692 O5'       -2.4969     7.8616  2278.7770 O.3      698 DC      0.0000
   1693 C5'       -2.8209     6.8490  2277.7548 C.3      698 DC      0.0000
   1694 C4'       -3.5555     5.7391  2278.4513 C.3      698 DC      0.0000
   1695 O4'       -2.7459     4.6315  2278.6982 O.3      698 DC      0.0000
   1696 C3'       -4.2597     6.1397  2279.7427 C.3      698 DC      0.0000
   1697 O3'       -5.6460     5.8356  2279.6631 O.3      698 DC      0.0000
   1698 C2'       -3.4172     5.4103  2280.7915 C.3      698 DC      0.0000
   1699 C1'       -2.9034     4.2129  2280.0951 C.3      698 DC      0.0000
   1700 N1        -1.5425     3.7798  2280.4272 N.am     698 DC      0.0000
   1701 C2        -1.3822     2.4197  2280.6830 C.2      698 DC      0.0000
   1702 O2        -2.3466     1.6485  2280.6875 O.2      698 DC      0.0000
   1703 N3        -0.1132     1.9728  2280.9568 N.2      698 DC      0.0000
   1704 C4         0.9572     2.8182  2280.9469 C.2      698 DC      0.0000
   1705 N4         2.1445     2.2905  2281.2238 N.pl3    698 DC      0.0000
   1706 C5         0.7818     4.1917  2280.6689 C.2      698 DC      0.0000
   1707 C6        -0.4711     4.6154  2280.4041 C.2      698 DC      0.0000
   1708 H5'       -3.4515     7.2870  2276.9811 H        698 DC      0.0000
   1709 H5''      -1.9029     6.4641  2277.3106 H        698 DC      0.0000
   1710 H4'       -4.3343     5.4058  2277.7653 H        698 DC      0.0000
   1711 H3'       -4.1443     7.2140  2279.8860 H        698 DC      0.0000
   1712 H2'       -2.5946     6.0406  2281.1294 H        698 DC      0.0000
   1713 H2''      -4.0393     5.1167  2281.6370 H        698 DC      0.0000
   1714 H1'       -3.6064     3.3838  2280.1760 H        698 DC      0.0000
   1715 H5         1.6176     4.8756  2280.6683 H        698 DC      0.0000
   1716 H6        -0.6286     5.6568  2280.1651 H        698 DC      0.0000
   1717 H41        2.2245     1.3036  2281.4230 H        698 DC      0.0000
   1718 H42        2.9672     2.8763  2281.2351 H        698 DC      0.0000
   1719 P         -6.8171     6.4317  2280.6151 P.3      699 DA      0.0000
   1720 OP1       -8.1080     6.3700  2279.8214 O.co2    699 DA      0.0000
   1721 OP2       -6.4546     7.8214  2280.9606 O.co2    699 DA      0.0000
   1722 O5'       -6.8280     5.4189  2281.9121 O.3      699 DA      0.0000
   1723 C5'       -6.9411     3.9931  2281.6169 C.3      699 DA      0.0000
   1724 C4'       -6.8375     3.1904  2282.8722 C.3      699 DA      0.0000
   1725 O4'       -5.5546     2.6051  2283.1143 O.3      699 DA      0.0000
   1726 C3'       -7.0933     3.9623  2284.1774 C.3      699 DA      0.0000
   1727 O3'       -7.4101     3.0231  2285.2073 O.3      699 DA      0.0000
   1728 C2'       -5.6891     4.5616  2284.3920 C.3      699 DA      0.0000
   1729 C1'       -4.9115     3.2539  2284.2087 C.3      699 DA      0.0000
   1730 N9        -3.4921     3.5504  2284.1144 N.ar     699 DA      0.0000
   1731 C8        -2.8377     4.7454  2283.9986 C.ar     699 DA      0.0000
   1732 N7        -1.5196     4.6602  2283.9800 N.ar     699 DA      0.0000
   1733 C5        -1.2894     3.2959  2284.0875 C.ar     699 DA      0.0000
   1734 C6        -0.0951     2.5347  2284.1220 C.ar     699 DA      0.0000
   1735 N6         1.1206     3.0442  2284.0368 N.pl3    699 DA      0.0000
   1736 N1        -0.2464     1.1841  2284.2546 N.ar     699 DA      0.0000
   1737 C2        -1.4886     0.6131  2284.3348 C.ar     699 DA      0.0000
   1738 N3        -2.6519     1.2589  2284.3049 N.ar     699 DA      0.0000
   1739 C4        -2.4826     2.5983  2284.1819 C.ar     699 DA      0.0000
   1740 H5'       -7.9047     3.7995  2281.1457 H        699 DA      0.0000
   1741 H5''      -6.1417     3.7014  2280.9356 H        699 DA      0.0000
   1742 H4'       -7.5672     2.3829  2282.8133 H        699 DA      0.0000
   1743 H3'       -7.8597     4.7290  2284.0637 H        699 DA      0.0000
   1744 H2'       -5.4337     5.3093  2283.6412 H        699 DA      0.0000
   1745 H2''      -5.5740     4.9554  2285.4019 H        699 DA      0.0000
   1746 H1'       -5.0677     2.6439  2285.0984 H        699 DA      0.0000
   1747 H8        -3.3593     5.6884  2283.9276 H        699 DA      0.0000
   1748 H2        -1.5278    -0.4619  2284.4312 H        699 DA      0.0000
   1749 H61        2.0477     2.6862  2284.2168 H        699 DA      0.0000
   1750 H62        1.1238     4.0039  2283.7220 H        699 DA      0.0000
   1751 P         -8.8785     2.4030  2285.3478 P.3      700 DC      0.0000
   1752 OP1       -9.6886     2.5235  2284.1027 O.co2    700 DC      0.0000
   1753 OP2       -9.4482     3.1926  2286.4907 O.co2    700 DC      0.0000
   1754 O5'       -8.6002     0.8678  2285.6309 O.3      700 DC      0.0000
   1755 C5'       -8.3171    -0.0636  2284.5432 C.3      700 DC      0.0000
   1756 C4'       -7.4347    -1.1000  2285.2482 C.3      700 DC      0.0000
   1757 O4'       -6.2139    -0.4699  2285.5602 O.3      700 DC      0.0000
   1758 C3'       -8.0217    -1.6193  2286.5581 C.3      700 DC      0.0000
   1759 O3'       -8.0566    -3.0629  2286.6260 O.3      700 DC      0.0000
   1760 C2'       -7.1374    -0.9815  2287.6403 C.3      700 DC      0.0000
   1761 C1'       -5.8310    -0.8752  2286.9641 C.3      700 DC      0.0000
   1762 N1        -4.8724     0.1688  2287.3169 N.am     700 DC      0.0000
   1763 C2        -3.5349    -0.2218  2287.2901 C.2      700 DC      0.0000
   1764 O2        -3.1874    -1.3776  2287.0831 O.2      700 DC      0.0000
   1765 N3        -2.6000     0.7331  2287.5432 N.2      700 DC      0.0000
   1766 C4        -2.9262     2.0273  2287.7765 C.2      700 DC      0.0000
   1767 N4        -1.9214     2.8701  2288.0075 N.pl3    700 DC      0.0000
   1768 C5        -4.2940     2.4163  2287.7831 C.2      700 DC      0.0000
   1769 C6        -5.2110     1.4687  2287.5337 C.2      700 DC      0.0000
   1770 H5'       -9.2313    -0.5154  2284.1584 H        700 DC      0.0000
   1771 H5''      -7.7661     0.4325  2283.7442 H        700 DC      0.0000
   1772 H4'       -7.2498    -1.9375  2284.5755 H        700 DC      0.0000
   1773 H3'       -9.0372    -1.2378  2286.6640 H        700 DC      0.0000
   1774 H2'       -7.5133     0.0006  2287.9273 H        700 DC      0.0000
   1775 H2''      -7.0665    -1.6339  2288.5106 H        700 DC      0.0000
   1776 H1'       -5.3371    -1.8469  2286.9509 H        700 DC      0.0000
   1777 H5        -4.5844     3.4374  2287.9816 H        700 DC      0.0000
   1778 H6        -6.2539     1.7476  2287.5039 H        700 DC      0.0000
   1779 H41       -0.9686     2.5351  2287.9964 H        700 DC      0.0000
   1780 H42       -2.1121     3.8444  2288.1936 H        700 DC      0.0000
   1781 P          8.3138     1.7108  2289.5855 P.3      700 DG      0.0000
   1782 OP1        9.7533     2.0754  2289.7643 O.co2    700 DG      0.0000
   1783 OP2        7.6224     2.5261  2288.5007 O.co2    700 DG      0.0000
   1784 O5'        8.1848     0.0831  2289.3783 O.3      700 DG      0.0000
   1785 C5'        7.6586    -0.7369  2290.4740 C.3      700 DG      0.0000
   1786 C4'        6.7950    -1.8247  2289.8398 C.3      700 DG      0.0000
   1787 O4'        5.4510    -1.4389  2289.7439 O.3      700 DG      0.0000
   1788 C3'        7.2254    -2.2331  2288.4334 C.3      700 DG      0.0000
   1789 O3'        7.1256    -3.6511  2288.1664 O.3      700 DG      0.0000
   1790 C2'        6.2786    -1.4213  2287.5311 C.3      700 DG      0.0000
   1791 C1'        5.0021    -1.4555  2288.3550 C.3      700 DG      0.0000
   1792 N9         4.1628    -0.2764  2288.0816 N.ar     700 DG      0.0000
   1793 C8         4.5645     1.0289  2287.9250 C.ar     700 DG      0.0000
   1794 N7         3.5834     1.8637  2287.7066 N.ar     700 DG      0.0000
   1795 C5         2.4523     1.0564  2287.7314 C.ar     700 DG      0.0000
   1796 C6         1.0751     1.3668  2287.5749 C.2      700 DG      0.0000
   1797 O6         0.5871     2.4889  2287.3781 O.2      700 DG      0.0000
   1798 N1         0.2378     0.2820  2287.6618 N.am     700 DG      0.0000
   1799 C2         0.6907    -0.9765  2287.8825 C.2      700 DG      0.0000
   1800 N2        -0.2378    -1.9268  2287.9458 N.pl3    700 DG      0.0000
   1801 N3         1.9743    -1.3223  2288.0402 N.2      700 DG      0.0000
   1802 C4         2.7953    -0.2574  2287.9569 C.ar     700 DG      0.0000
   1803 H5'        8.4793    -1.1879  2291.0318 H        700 DG      0.0000
   1804 H5''       7.0519    -0.1222  2291.1390 H        700 DG      0.0000
   1805 H4'        6.8462    -2.7079  2290.4765 H        700 DG      0.0000
   1806 H3'        8.2515    -1.9070  2288.2629 H        700 DG      0.0000
   1807 H2'        6.6367    -0.4017  2287.3885 H        700 DG      0.0000
   1808 H2''       6.1348    -1.9194  2286.5724 H        700 DG      0.0000
   1809 H1'        4.4456    -2.3700  2288.1497 H        700 DG      0.0000
   1810 H8         5.5983     1.3368  2287.9777 H        700 DG      0.0000
   1811 H1        -0.7561     0.4277  2287.5570 H        700 DG      0.0000
   1812 H21       -1.2126    -1.6889  2287.8308 H        700 DG      0.0000
   1813 H22        0.0319    -2.8864  2288.1090 H        700 DG      0.0000
   1814 P          6.8303    -4.0509  2286.6429 P.3      699 DT      0.0000
   1815 OP1        7.3773    -5.3973  2286.2520 O.co2    699 DT      0.0000
   1816 OP2        7.5457    -2.9561  2285.9424 O.co2    699 DT      0.0000
   1817 O5'        5.2334    -4.0471  2286.5120 O.3      699 DT      0.0000
   1818 C5'        4.5470    -5.3118  2286.7797 C.3      699 DT      0.0000
   1819 C4'        3.2368    -5.3144  2286.0226 C.3      699 DT      0.0000
   1820 O4'        2.6125    -4.0432  2285.9953 O.3      699 DT      0.0000
   1821 C3'        3.3896    -5.7310  2284.5679 C.3      699 DT      0.0000
   1822 O3'        2.3060    -6.5472  2284.0728 O.3      699 DT      0.0000
   1823 C2'        3.4719    -4.4048  2283.8451 C.3      699 DT      0.0000
   1824 C1'        2.4192    -3.6328  2284.6232 C.3      699 DT      0.0000
   1825 N1         2.7424    -2.2054  2284.4719 N.am     699 DT      0.0000
   1826 C2         1.6756    -1.3190  2284.5786 C.2      699 DT      0.0000
   1827 O2         0.5379    -1.7356  2284.7684 O.2      699 DT      0.0000
   1828 N3         1.9567     0.0132  2284.4585 N.am     699 DT      0.0000
   1829 C4         3.2235     0.4660  2284.2409 C.2      699 DT      0.0000
   1830 O4         3.3875     1.7271  2284.1433 O.2      699 DT      0.0000
   1831 C5         4.2953    -0.4657  2284.1345 C.2      699 DT      0.0000
   1832 C7         5.6969     0.0226  2283.9056 C.3      699 DT      0.0000
   1833 C6         4.0149    -1.7658  2284.2563 C.2      699 DT      0.0000
   1834 H5'        5.1664    -6.1443  2286.4460 H        699 DT      0.0000
   1835 H5''       4.3531    -5.4046  2287.8483 H        699 DT      0.0000
   1836 H4'        2.5612    -6.0170  2286.5106 H        699 DT      0.0000
   1837 H3'        4.3302    -6.2675  2284.4439 H        699 DT      0.0000
   1838 H2'        4.4591    -3.9519  2283.9366 H        699 DT      0.0000
   1839 H2''       3.1855    -4.5110  2282.7987 H        699 DT      0.0000
   1840 H1'        1.4120    -3.8581  2284.2725 H        699 DT      0.0000
   1841 H3         1.2034     0.6818  2284.5332 H        699 DT      0.0000
   1842 H6         4.8158    -2.4865  2284.1821 H        699 DT      0.0000
   1843 H71        5.6965     1.1104  2283.8369 H        699 DT      0.0000
   1844 H72        6.3301    -0.2885  2284.7365 H        699 DT      0.0000
   1845 H73        6.0819    -0.3999  2282.9774 H        699 DT      0.0000
   1846 P          2.9881    -7.8447  2283.2944 P.3      698 DG      0.0000
   1847 OP1        3.1355    -9.0494  2284.1657 O.co2    698 DG      0.0000
   1848 OP2        4.2667    -7.2093  2282.8889 O.co2    698 DG      0.0000
   1849 O5'        1.8547    -8.1640  2282.2136 O.3      698 DG      0.0000
   1850 C5'        0.6660    -8.8787  2282.6371 C.3      698 DG      0.0000
   1851 C4'       -0.4961    -8.0011  2282.1894 C.3      698 DG      0.0000
   1852 O4'       -0.1996    -6.6457  2282.4601 O.3      698 DG      0.0000
   1853 C3'       -0.8308    -8.1088  2280.7016 C.3      698 DG      0.0000
   1854 O3'       -2.1844    -8.4700  2280.4931 O.3      698 DG      0.0000
   1855 C2'       -0.4157    -6.7670  2280.1249 C.3      698 DG      0.0000
   1856 C1'       -0.5425    -5.8405  2281.3111 C.3      698 DG      0.0000
   1857 N9         0.3734    -4.7033  2281.1875 N.ar     698 DG      0.0000
   1858 C8         1.7302    -4.7205  2281.0286 C.ar     698 DG      0.0000
   1859 N7         2.2674    -3.5274  2280.9506 N.ar     698 DG      0.0000
   1860 C5         1.1872    -2.6605  2281.0881 C.ar     698 DG      0.0000
   1861 C6         1.1056    -1.2431  2281.0976 C.2      698 DG      0.0000
   1862 O6         2.0339    -0.4470  2280.9985 O.2      698 DG      0.0000
   1863 N1        -0.1585    -0.7475  2281.2465 N.am     698 DG      0.0000
   1864 C2        -1.2531    -1.5672  2281.3794 C.2      698 DG      0.0000
   1865 N2        -2.4283    -0.9520  2281.5151 N.pl3    698 DG      0.0000
   1866 N3        -1.2459    -2.9040  2281.3837 N.2      698 DG      0.0000
   1867 C4         0.0135    -3.3805  2281.2330 C.ar     698 DG      0.0000
   1868 H5'        0.6151    -9.8566  2282.1583 H        698 DG      0.0000
   1869 H5''       0.6589    -8.9891  2283.7214 H        698 DG      0.0000
   1870 H4'       -1.3799    -8.2814  2282.7624 H        698 DG      0.0000
   1871 H3'       -0.1986    -8.8808  2280.2630 H        698 DG      0.0000
   1872 H2'        0.6104    -6.7976  2279.7585 H        698 DG      0.0000
   1873 H2''      -1.0971    -6.4653  2279.3294 H        698 DG      0.0000
   1874 H1'       -1.5691    -5.4846  2281.3981 H        698 DG      0.0000
   1875 H8         2.3064    -5.6321  2280.9725 H        698 DG      0.0000
   1876 H1        -0.2929     0.2534  2281.2594 H        698 DG      0.0000
   1877 H21       -2.4730     0.0570  2281.5160 H        698 DG      0.0000
   1878 H22       -3.2737    -1.4950  2281.6168 H        698 DG      0.0000
   1879 P         -3.3748    -7.8959  2279.6268 P.3      697 DA      0.0000
   1880 OP1       -4.6912    -7.9930  2280.4082 O.co2    697 DA      0.0000
   1881 OP2       -3.4239    -8.7446  2278.4341 O.co2    697 DA      0.0000
   1882 O5'       -3.0830    -6.3026  2279.4520 O.3      697 DA      0.0000
   1883 C5'       -3.5786    -5.5291  2280.6085 C.3      697 DA      0.0000
   1884 C4'       -4.6445    -4.6009  2280.0807 C.3      697 DA      0.0000
   1885 O4'       -4.1625    -3.3000  2279.8584 O.3      697 DA      0.0000
   1886 C3'       -5.2201    -5.0559  2278.7402 C.3      697 DA      0.0000
   1887 O3'       -6.6153    -4.8850  2278.6650 O.3      697 DA      0.0000
   1888 C2'       -4.3614    -4.2982  2277.7436 C.3      697 DA      0.0000
   1889 C1'       -3.8336    -3.0911  2278.4674 C.3      697 DA      0.0000
   1890 N9        -2.3894    -2.9101  2278.2419 N.ar     697 DA      0.0000
   1891 C8        -1.4152    -3.8670  2278.0556 C.ar     697 DA      0.0000
   1892 N7        -0.2106    -3.3824  2277.8597 N.ar     697 DA      0.0000
   1893 C5        -0.4023    -2.0092  2277.9465 C.ar     697 DA      0.0000
   1894 C6         0.5050    -0.9292  2277.8409 C.ar     697 DA      0.0000
   1895 N6         1.8009    -1.0755  2277.6284 N.pl3    697 DA      0.0000
   1896 N1        -0.0304     0.3167  2277.9646 N.ar     697 DA      0.0000
   1897 C2        -1.3654     0.4978  2278.1891 C.ar     697 DA      0.0000
   1898 N3        -2.2694    -0.4728  2278.3050 N.ar     697 DA      0.0000
   1899 C4        -1.7255    -1.7063  2278.1689 C.ar     697 DA      0.0000
   1900 H5'       -4.0009    -6.2000  2281.3565 H        697 DA      0.0000
   1901 H5''      -2.7646    -4.9504  2281.0451 H        697 DA      0.0000
   1902 H4'       -5.4545    -4.5521  2280.8083 H        697 DA      0.0000
   1903 H3'       -5.0061    -6.1187  2278.6270 H        697 DA      0.0000
   1904 H2'       -4.9609    -3.9912  2276.8867 H        697 DA      0.0000
   1905 H2''      -3.5335    -4.9255  2277.4131 H        697 DA      0.0000
   1906 H1'       -4.3602    -2.2066  2278.1092 H        697 DA      0.0000
   1907 H8        -1.6249    -4.9264  2278.0695 H        697 DA      0.0000
   1908 H2        -1.7176     1.5147  2278.2804 H        697 DA      0.0000
   1909 H61        2.4637    -0.3816  2277.9438 H        697 DA      0.0000
   1910 H62        2.1346    -1.8954  2277.1422 H        697 DA      0.0000
   1911 P         -7.5490    -4.4142  2277.4804 P.3      696 DA      0.0000
   1912 OP1       -8.9894    -4.1347  2278.0003 O.co2    696 DA      0.0000
   1913 OP2       -7.5874    -5.5826  2276.5467 O.co2    696 DA      0.0000
   1914 O5'       -7.0064    -3.0232  2276.9777 O.3      696 DA      0.0000
   1915 C5'       -7.6236    -1.8015  2277.4335 C.3      696 DA      0.0000
   1916 C4'       -6.9182    -0.6616  2276.7316 C.3      696 DA      0.0000
   1917 O4'       -5.5342    -0.8284  2276.6108 O.3      696 DA      0.0000
   1918 C3'       -7.4482    -0.3916  2275.3241 C.3      696 DA      0.0000
   1919 O3'       -8.0894     0.8975  2275.2926 O.3      696 DA      0.0000
   1920 C2'       -6.2323    -0.6212  2274.4245 C.3      696 DA      0.0000
   1921 C1'       -5.0760    -0.3005  2275.3223 C.3      696 DA      0.0000
   1922 N9        -3.8142    -0.9693  2275.0227 N.ar     696 DA      0.0000
   1923 C8        -3.5621    -2.3116  2274.8279 C.ar     696 DA      0.0000
   1924 N7        -2.2938    -2.5886  2274.6225 N.ar     696 DA      0.0000
   1925 C5        -1.6636    -1.3618  2274.6971 C.ar     696 DA      0.0000
   1926 C6        -0.3076    -0.9881  2274.5636 C.ar     696 DA      0.0000
   1927 N6         0.6770    -1.8478  2274.3204 N.pl3    696 DA      0.0000
   1928 N1        -0.0536     0.3518  2274.7124 N.ar     696 DA      0.0000
   1929 C2        -1.0293     1.2453  2274.9649 C.ar     696 DA      0.0000
   1930 N3        -2.3289     0.9660  2275.1038 N.ar     696 DA      0.0000
   1931 C4        -2.5760    -0.3547  2274.9566 C.ar     696 DA      0.0000
   1932 H5'       -8.6833    -1.7996  2277.1784 H        696 DA      0.0000
   1933 H5''      -7.5018    -1.7047  2278.5123 H        696 DA      0.0000
   1934 H4'       -7.0875     0.2390  2277.3217 H        696 DA      0.0000
   1935 H3'       -8.1948    -1.1501  2275.0891 H        696 DA      0.0000
   1936 H2'       -6.1877    -1.6560  2274.0846 H        696 DA      0.0000
   1937 H2''      -6.2541     0.0591  2273.5732 H        696 DA      0.0000
   1938 H1'       -4.9296     0.7780  2275.3834 H        696 DA      0.0000
   1939 H8        -4.3356    -3.0653  2274.8429 H        696 DA      0.0000
   1940 H2        -0.7353     2.2798  2275.0640 H        696 DA      0.0000
   1941 H61        1.5952    -1.5469  2274.6144 H        696 DA      0.0000
   1942 H62        0.5179    -2.7393  2273.8731 H        696 DA      0.0000
   1943 P         -8.7223     1.4202  2273.9077 P.3      695 DT      0.0000
   1944 OP1       -9.6482     2.5960  2273.9658 O.co2    695 DT      0.0000
   1945 OP2       -9.3273     0.1529  2273.3950 O.co2    695 DT      0.0000
   1946 O5'       -7.3144     1.9688  2273.2045 O.3      695 DT      0.0000
   1947 C5'       -6.5179     2.6554  2274.2168 C.3      695 DT      0.0000
   1948 C4'       -5.5707     3.5895  2273.5339 C.3      695 DT      0.0000
   1949 O4'       -4.2931     3.0558  2273.3535 O.3      695 DT      0.0000
   1950 C3'       -6.0465     4.0729  2272.1726 C.3      695 DT      0.0000
   1951 O3'       -5.6972     5.4366  2271.9053 O.3      695 DT      0.0000
   1952 C2'       -5.3545     3.0351  2271.2793 C.3      695 DT      0.0000
   1953 C1'       -3.9858     2.9438  2271.9193 C.3      695 DT      0.0000
   1954 N1        -3.3748     1.6211  2271.6893 N.am     695 DT      0.0000
   1955 C2        -1.9975     1.5658  2271.5677 C.2      695 DT      0.0000
   1956 O2        -1.3131     2.5896  2271.6045 O.2      695 DT      0.0000
   1957 N3        -1.4165     0.3381  2271.4003 N.am     695 DT      0.0000
   1958 C4        -2.1518    -0.8050  2271.3518 C.2      695 DT      0.0000
   1959 O4        -1.5327    -1.8950  2271.1663 O.2      695 DT      0.0000
   1960 C5        -3.5650    -0.7282  2271.5002 C.2      695 DT      0.0000
   1961 C7        -4.4136    -1.9763  2271.4481 C.3      695 DT      0.0000
   1962 C6        -4.1166     0.4776  2271.6732 C.2      695 DT      0.0000
   1963 H5'       -7.1748     3.2196  2274.8789 H        695 DT      0.0000
   1964 H5''      -5.9551     1.9240  2274.7969 H        695 DT      0.0000
   1965 H4'       -5.4672     4.4679  2274.1709 H        695 DT      0.0000
   1966 H3'       -7.1274     3.9528  2272.1006 H        695 DT      0.0000
   1967 H2'       -5.8721     2.0763  2271.3099 H        695 DT      0.0000
   1968 H2''      -5.2774     3.3988  2270.2547 H        695 DT      0.0000
   1969 H1'       -3.3328     3.7502  2271.5854 H        695 DT      0.0000
   1970 H3        -0.4122     0.2791  2271.3102 H        695 DT      0.0000
   1971 H6        -5.1863     0.5479  2271.8046 H        695 DT      0.0000
   1972 H71       -4.8163    -2.1008  2270.4429 H        695 DT      0.0000
   1973 H72       -5.2345    -1.8871  2272.1597 H        695 DT      0.0000
   1974 H73       -3.8029    -2.8419  2271.7046 H        695 DT      0.0000
   1975 P         -6.0861     5.9874  2270.4154 P.3      694 DT      0.0000
   1976 OP1       -7.1586     7.0683  2270.5634 O.co2    694 DT      0.0000
   1977 OP2       -6.6753     4.7792  2269.7456 O.co2    694 DT      0.0000
   1978 O5'       -4.7899     6.5326  2269.7634 O.3      694 DT      0.0000
   1979 C5'       -3.7135     7.0937  2270.5148 C.3      694 DT      0.0000
   1980 C4'       -2.4423     6.8490  2269.7668 C.3      694 DT      0.0000
   1981 O4'       -1.9416     5.5406  2269.7098 O.3      694 DT      0.0000
   1982 C3'       -2.3747     7.3289  2268.3007 C.3      694 DT      0.0000
   1983 O3'       -1.0042     7.7264  2268.1970 O.3      694 DT      0.0000
   1984 C2'       -2.6569     6.0283  2267.5370 C.3      694 DT      0.0000
   1985 C1'       -1.7007     5.1456  2268.3127 C.3      694 DT      0.0000
   1986 N1        -1.9334     3.7024  2268.2066 N.am     694 DT      0.0000
   1987 C2        -0.7800     2.9065  2268.2059 C.2      694 DT      0.0000
   1988 O2         0.3429     3.4134  2268.2490 O.2      694 DT      0.0000
   1989 N3        -0.9589     1.5540  2268.1525 N.am     694 DT      0.0000
   1990 C4        -2.1914     0.9744  2268.0927 C.2      694 DT      0.0000
   1991 O4        -2.2522    -0.2904  2268.0303 O.2      694 DT      0.0000
   1992 C5        -3.3447     1.8054  2268.1010 C.2      694 DT      0.0000
   1993 C7        -4.7202     1.1749  2268.0395 C.3      694 DT      0.0000
   1994 C6        -3.1649     3.1278  2268.1675 C.2      694 DT      0.0000
   1995 H5'       -3.8687     8.1656  2270.6370 H        694 DT      0.0000
   1996 H5''      -3.6612     6.6165  2271.4934 H        694 DT      0.0000
   1997 H4'       -1.6823     7.4256  2270.2940 H        694 DT      0.0000
   1998 H3'       -3.0785     8.1292  2268.0720 H        694 DT      0.0000
   1999 H2'       -2.3946     6.0997  2266.4814 H        694 DT      0.0000
   2000 H2''      -3.6899     5.7065  2267.6686 H        694 DT      0.0000
   2001 H1'       -0.6727     5.3771  2268.0337 H        694 DT      0.0000
   2002 H3        -0.1437     0.9578  2268.1574 H        694 DT      0.0000
   2003 H6        -4.0349     3.7674  2268.1912 H        694 DT      0.0000
   2004 H71       -4.6216     0.0905  2267.9907 H        694 DT      0.0000
   2005 H72       -5.2441     1.5321  2267.1530 H        694 DT      0.0000
   2006 H73       -5.2855     1.4485  2268.9305 H        694 DT      0.0000
   2007 P         -0.3580     8.5505  2267.0508 P.3      693 DC      0.0000
   2008 OP1        0.4685     9.6846  2267.6599 O.co2    693 DC      0.0000
   2009 OP2       -1.4982     9.1234  2266.2689 O.co2    693 DC      0.0000
   2010 O5'        0.5398     7.4097  2266.3114 O.3      693 DC      0.0000
   2011 C5'        1.7492     7.0100  2267.0359 C.3      693 DC      0.0000
   2012 C4'        2.7815     6.6925  2265.9853 C.3      693 DC      0.0000
   2013 O4'        2.8852     5.3093  2265.7400 O.3      693 DC      0.0000
   2014 C3'        2.5447     7.3421  2264.6209 C.3      693 DC      0.0000
   2015 O3'        3.7357     7.6902  2263.9116 O.3      693 DC      0.0000
   2016 C2'        1.6967     6.2622  2263.9348 C.3      693 DC      0.0000
   2017 C1'        2.3030     4.9712  2264.4814 C.3      693 DC      0.0000
   2018 N1         1.2163     3.9707  2264.5992 N.am     693 DC      0.0000
   2019 C2         1.5905     2.6279  2264.6164 C.2      693 DC      0.0000
   2020 O2         2.7813     2.2939  2264.5477 O.2      693 DC      0.0000
   2021 N3         0.5895     1.7000  2264.7196 N.2      693 DC      0.0000
   2022 C4        -0.7201     2.0550  2264.7904 C.2      693 DC      0.0000
   2023 N4        -1.6601     1.1128  2264.8923 N.pl3    693 DC      0.0000
   2024 C5        -1.0747     3.4327  2264.7653 C.2      693 DC      0.0000
   2025 C6        -0.0908     4.3435  2264.6717 C.2      693 DC      0.0000
   2026 H5'        2.0953     7.8247  2267.6718 H        693 DC      0.0000
   2027 H5''       1.5471     6.1253  2267.6398 H        693 DC      0.0000
   2028 H4'        3.7474     7.0376  2266.3541 H        693 DC      0.0000
   2029 H3'        1.9377     8.2373  2264.7551 H        693 DC      0.0000
   2030 H2'        1.7938     6.3150  2262.8504 H        693 DC      0.0000
   2031 H2''       0.6513     6.3502  2264.2307 H        693 DC      0.0000
   2032 H1'        3.0729     4.6054  2263.8020 H        693 DC      0.0000
   2033 H5        -2.1090     3.7390  2264.8200 H        693 DC      0.0000
   2034 H6        -0.3427     5.3936  2264.6536 H        693 DC      0.0000
   2035 H41       -1.3977     0.1377  2264.9130 H        693 DC      0.0000
   2036 H42       -2.6339     1.3750  2264.9487 H        693 DC      0.0000
   2037 P          3.9498     7.5960  2262.2796 P.3      692 DA      0.0000
   2038 OP1        5.0580     8.5504  2261.8901 O.co2    692 DA      0.0000
   2039 OP2        2.6146     7.9232  2261.7096 O.co2    692 DA      0.0000
   2040 O5'        4.4962     6.1052  2262.1141 O.3      692 DA      0.0000
   2041 C5'        5.8717     5.8169  2262.5795 C.3      692 DA      0.0000
   2042 C4'        6.2548     4.6373  2261.7022 C.3      692 DA      0.0000
   2043 O4'        5.3827     3.5317  2261.9696 O.3      692 DA      0.0000
   2044 C3'        6.0823     4.9126  2260.1978 C.3      692 DA      0.0000
   2045 O3'        6.7849     3.9658  2259.4088 O.3      692 DA      0.0000
   2046 C2'        4.5926     4.5713  2260.0104 C.3      692 DA      0.0000
   2047 C1'        4.6717     3.2160  2260.7650 C.3      692 DA      0.0000
   2048 N9         3.2813     2.7974  2260.9104 N.ar     692 DA      0.0000
   2049 C8         2.1813     3.6225  2260.9833 C.ar     692 DA      0.0000
   2050 N7         1.0506     2.9722  2261.0979 N.ar     692 DA      0.0000
   2051 C5         1.4448     1.6223  2261.0916 C.ar     692 DA      0.0000
   2052 C6         0.6801     0.4276  2261.1915 C.ar     692 DA      0.0000
   2053 N6        -0.6502     0.4048  2261.3143 N.pl3    692 DA      0.0000
   2054 N1         1.4176    -0.7174  2261.1563 N.ar     692 DA      0.0000
   2055 C2         2.7677    -0.6948  2261.0375 C.ar     692 DA      0.0000
   2056 N3         3.5466     0.3870  2260.9460 N.ar     692 DA      0.0000
   2057 C4         2.8081     1.5102  2260.9735 C.ar     692 DA      0.0000
   2058 H5'        6.5334     6.6669  2262.4128 H        692 DA      0.0000
   2059 H5''       5.8703     5.5304  2263.6312 H        692 DA      0.0000
   2060 H4'        7.2859     4.3485  2261.9062 H        692 DA      0.0000
   2061 H3'        6.3160     5.9425  2259.9282 H        692 DA      0.0000
   2062 H2'        3.9278     5.2883  2260.4920 H        692 DA      0.0000
   2063 H2''       4.3407     4.4324  2258.9590 H        692 DA      0.0000
   2064 H1'        5.2278     2.4863  2260.1766 H        692 DA      0.0000
   2065 H8         2.2450     4.7002  2260.9493 H        692 DA      0.0000
   2066 H2         3.2665    -1.6524  2261.0143 H        692 DA      0.0000
   2067 H61       -1.1699     1.2704  2261.3391 H        692 DA      0.0000
   2068 H62       -1.1360    -0.4781  2261.3825 H        692 DA      0.0000
   2069 P          7.7823     4.4403  2258.2679 P.3      691 DC      0.0000
   2070 OP1        9.0585     4.7083  2259.0481 O.co2    691 DC      0.0000
   2071 OP2        7.2931     5.6180  2257.5423 O.co2    691 DC      0.0000
   2072 O5'        7.7777     3.1166  2257.2920 O.3      691 DC      0.0000
   2073 C5'        8.0621     1.8289  2257.9610 C.3      691 DC      0.0000
   2074 C4'        7.2199     0.7595  2257.3170 C.3      691 DC      0.0000
   2075 O4'        5.9644     0.5570  2257.9541 O.3      691 DC      0.0000
   2076 C3'        6.9086     1.0518  2255.8392 C.3      691 DC      0.0000
   2077 O3'        6.8137    -0.1124  2255.0279 O.3      691 DC      0.0000
   2078 C2'        5.4845     1.6763  2256.0048 C.3      691 DC      0.0000
   2079 C1'        4.9812     0.4850  2256.9004 C.3      691 DC      0.0000
   2080 N1         3.5780     0.7012  2257.1383 N.am     691 DC      0.0000
   2081 C2         2.7860    -0.3905  2257.4554 C.2      691 DC      0.0000
   2082 O2         3.0980    -1.5783  2257.5959 O.2      691 DC      0.0000
   2083 N3         1.4499    -0.1777  2257.6537 N.2      691 DC      0.0000
   2084 C4         0.8890     1.0643  2257.5377 C.2      691 DC      0.0000
   2085 N4        -0.4257     1.2265  2257.7537 N.pl3    691 DC      0.0000
   2086 C5         1.7144     2.1747  2257.2080 C.2      691 DC      0.0000
   2087 C6         3.0180     1.9413  2257.0163 C.2      691 DC      0.0000
   2088 H5'        9.1179     1.5821  2257.8495 H        691 DC      0.0000
   2089 H5''       7.8131     1.9033  2259.0196 H        691 DC      0.0000
   2090 H4'        7.7745    -0.1777  2257.3637 H        691 DC      0.0000
   2091 H3'        7.6117     1.7716  2255.4202 H        691 DC      0.0000
   2092 H2'        5.4891     2.6359  2256.5219 H        691 DC      0.0000
   2093 H2''       4.9493     1.7273  2255.0566 H        691 DC      0.0000
   2094 H1'        5.1105    -0.4502  2256.3555 H        691 DC      0.0000
   2095 H5         1.3041     3.1696  2257.1159 H        691 DC      0.0000
   2096 H6         3.6567     2.7715  2256.7531 H        691 DC      0.0000
   2097 H41       -0.9998     0.4311  2257.9943 H        691 DC      0.0000
   2098 H42       -0.8409     2.1439  2257.6758 H        691 DC      0.0000
@<TRIPOS>BOND
     1      9     31 1
     2     39     63 1
     3    101    126 1
     4    134    158 1
     5      1      2 1
     6      1      3 1
     7      1      4 1
     8      4      5 1
     9      5      6 1
    10      6      7 1
    11      6      8 1
    12      7     11 1
    13      8      9 1
    14      8     10 1
    15     10     11 1
    16     11     12 1
    17     12     13 am
    18     12     19 1
    19     13     14 2
    20     13     15 1
    21     15     16 2
    22     16     17 2
    23     16     18 2
    24     18     19 2
    25     31     32 1
    26     31     33 1
    27     31     34 1
    28     34     35 1
    29     35     36 1
    30     36     37 1
    31     36     38 1
    32     37     41 1
    33     38     39 1
    34     38     40 1
    35     40     41 1
    36     41     42 1
    37     42     43 ar
    38     42     51 ar
    39     43     44 ar
    40     44     45 ar
    41     45     46 ar
    42     45     51 ar
    43     46     47 1
    44     46     48 ar
    45     48     49 ar
    46     49     50 ar
    47     50     51 ar
    48     63     64 1
    49     63     65 1
    50     63     66 1
    51     66     67 1
    52     67     68 1
    53     68     69 1
    54     68     70 1
    55     69     73 1
    56     70     71 1
    57     70     72 1
    58     72     73 1
    59     73     74 1
    60     74     75 am
    61     74     81 1
    62     75     76 2
    63     75     77 1
    64     77     78 2
    65     78     79 2
    66     78     80 2
    67     80     81 2
    68     93     94 1
    69     93     95 1
    70     93     96 1
    71     96     97 1
    72     97     98 1
    73     98     99 1
    74     98    100 1
    75     99    103 1
    76    100    101 1
    77    100    102 1
    78    102    103 1
    79    103    104 1
    80    104    105 ar
    81    104    114 ar
    82    105    106 ar
    83    106    107 ar
    84    107    108 1
    85    107    114 ar
    86    108    109 2
    87    108    110 am
    88    110    111 1
    89    111    112 2
    90    111    113 2
    91    113    114 1
    92    126    127 1
    93    126    128 1
    94    126    129 1
    95    129    130 1
    96    130    131 1
    97    131    132 1
    98    131    133 1
    99    132    136 1
   100    133    134 1
   101    133    135 1
   102    135    136 1
   103    136    137 1
   104    137    138 am
   105    137    145 1
   106    138    139 2
   107    138    140 am
   108    140    141 am
   109    141    142 2
   110    141    143 1
   111    143    144 1
   112    143    145 2
   113    158    159 1
   114    158    160 1
   115    158    161 1
   116    161    162 1
   117    162    163 1
   118    163    164 1
   119    163    165 1
   120    164    168 1
   121    165    166 1
   122    165    167 1
   123    167    168 1
   124    168    169 1
   125    169    170 ar
   126    169    179 ar
   127    170    171 ar
   128    171    172 ar
   129    172    173 1
   130    172    179 ar
   131    173    174 2
   132    173    175 am
   133    175    176 1
   134    176    177 2
   135    176    178 2
   136    178    179 1
   137     20      5 1
   138     21      5 1
   139     22      6 1
   140     23      8 1
   141     24     10 1
   142     25     10 1
   143     26     11 1
   144     27     18 1
   145     28     19 1
   146     52     35 1
   147     53     35 1
   148     54     36 1
   149     55     38 1
   150     56     40 1
   151     57     40 1
   152     58     41 1
   153     59     43 1
   154     60     49 1
   155     82     67 1
   156     83     67 1
   157     84     68 1
   158     85     70 1
   159     86     72 1
   160     87     72 1
   161     88     73 1
   162     89     80 1
   163     90     81 1
   164    115     97 1
   165    116     97 1
   166    117     98 1
   167    118    100 1
   168    119    102 1
   169    120    102 1
   170    121    103 1
   171    122    105 1
   172    123    110 1
   173    146    130 1
   174    147    130 1
   175    148    131 1
   176    149    133 1
   177    150    135 1
   178    151    135 1
   179    152    136 1
   180    153    140 1
   181    154    145 1
   182    180    162 1
   183    181    162 1
   184    182    163 1
   185    183    165 1
   186    184    167 1
   187    185    167 1
   188    186    168 1
   189    187    170 1
   190    188    175 1
   191     29     17 1
   192     30     17 1
   193     91     79 1
   194     92     79 1
   195    124    112 1
   196    125    112 1
   197    189    177 1
   198    190    177 1
   199     61     47 1
   200     62     47 1
   201    155    144 1
   202    156    144 1
   203    157    144 1
   204     71    191 1
   205     93    805 1
   206    199    224 1
   207    232    256 1
   208    264    289 1
   209    297    321 1
   210    329    353 1
   211    361    385 1
   212    393    417 1
   213    425    447 1
   214    455    479 1
   215    517    542 1
   216    550    574 1
   217    582    607 1
   218    615    639 1
   219    647    671 1
   220    679    703 1
   221    711    735 1
   222    743    765 1
   223    773    797 1
   224    191    192 1
   225    191    193 1
   226    191    194 1
   227    194    195 1
   228    195    196 1
   229    196    197 1
   230    196    198 1
   231    197    201 1
   232    198    199 1
   233    198    200 1
   234    200    201 1
   235    201    202 1
   236    202    203 ar
   237    202    212 ar
   238    203    204 ar
   239    204    205 ar
   240    205    206 1
   241    205    212 ar
   242    206    207 2
   243    206    208 am
   244    208    209 1
   245    209    210 2
   246    209    211 2
   247    211    212 1
   248    224    225 1
   249    224    226 1
   250    224    227 1
   251    227    228 1
   252    228    229 1
   253    229    230 1
   254    229    231 1
   255    230    234 1
   256    231    232 1
   257    231    233 1
   258    233    234 1
   259    234    235 1
   260    235    236 am
   261    235    243 1
   262    236    237 2
   263    236    238 am
   264    238    239 am
   265    239    240 2
   266    239    241 1
   267    241    242 1
   268    241    243 2
   269    256    257 1
   270    256    258 1
   271    256    259 1
   272    259    260 1
   273    260    261 1
   274    261    262 1
   275    261    263 1
   276    262    266 1
   277    263    264 1
   278    263    265 1
   279    265    266 1
   280    266    267 1
   281    267    268 ar
   282    267    277 ar
   283    268    269 ar
   284    269    270 ar
   285    270    271 1
   286    270    277 ar
   287    271    272 2
   288    271    273 am
   289    273    274 1
   290    274    275 2
   291    274    276 2
   292    276    277 1
   293    289    290 1
   294    289    291 1
   295    289    292 1
   296    292    293 1
   297    293    294 1
   298    294    295 1
   299    294    296 1
   300    295    299 1
   301    296    297 1
   302    296    298 1
   303    298    299 1
   304    299    300 1
   305    300    301 ar
   306    300    309 ar
   307    301    302 ar
   308    302    303 ar
   309    303    304 ar
   310    303    309 ar
   311    304    305 1
   312    304    306 ar
   313    306    307 ar
   314    307    308 ar
   315    308    309 ar
   316    321    322 1
   317    321    323 1
   318    321    324 1
   319    324    325 1
   320    325    326 1
   321    326    327 1
   322    326    328 1
   323    327    331 1
   324    328    329 1
   325    328    330 1
   326    330    331 1
   327    331    332 1
   328    332    333 ar
   329    332    341 ar
   330    333    334 ar
   331    334    335 ar
   332    335    336 ar
   333    335    341 ar
   334    336    337 1
   335    336    338 ar
   336    338    339 ar
   337    339    340 ar
   338    340    341 ar
   339    353    354 1
   340    353    355 1
   341    353    356 1
   342    356    357 1
   343    357    358 1
   344    358    359 1
   345    358    360 1
   346    359    363 1
   347    360    361 1
   348    360    362 1
   349    362    363 1
   350    363    364 1
   351    364    365 am
   352    364    372 1
   353    365    366 2
   354    365    367 am
   355    367    368 am
   356    368    369 2
   357    368    370 1
   358    370    371 1
   359    370    372 2
   360    385    386 1
   361    385    387 1
   362    385    388 1
   363    388    389 1
   364    389    390 1
   365    390    391 1
   366    390    392 1
   367    391    395 1
   368    392    393 1
   369    392    394 1
   370    394    395 1
   371    395    396 1
   372    396    397 am
   373    396    404 1
   374    397    398 2
   375    397    399 am
   376    399    400 am
   377    400    401 2
   378    400    402 1
   379    402    403 1
   380    402    404 2
   381    417    418 1
   382    417    419 1
   383    417    420 1
   384    420    421 1
   385    421    422 1
   386    422    423 1
   387    422    424 1
   388    423    427 1
   389    424    425 1
   390    424    426 1
   391    426    427 1
   392    427    428 1
   393    428    429 am
   394    428    435 1
   395    429    430 2
   396    429    431 1
   397    431    432 2
   398    432    433 2
   399    432    434 2
   400    434    435 2
   401    447    448 1
   402    447    449 1
   403    447    450 1
   404    450    451 1
   405    451    452 1
   406    452    453 1
   407    452    454 1
   408    453    457 1
   409    454    455 1
   410    454    456 1
   411    456    457 1
   412    457    458 1
   413    458    459 ar
   414    458    467 ar
   415    459    460 ar
   416    460    461 ar
   417    461    462 ar
   418    461    467 ar
   419    462    463 1
   420    462    464 ar
   421    464    465 ar
   422    465    466 ar
   423    466    467 ar
   424    479    480 1
   425    479    481 1
   426    479    482 1
   427    482    483 1
   428    483    484 1
   429    484    485 1
   430    484    486 1
   431    485    489 1
   432    486    487 1
   433    486    488 1
   434    488    489 1
   435    489    490 1
   436    490    491 am
   437    490    497 1
   438    491    492 2
   439    491    493 1
   440    493    494 2
   441    494    495 2
   442    494    496 2
   443    496    497 2
   444    509    510 1
   445    509    511 1
   446    509    512 1
   447    512    513 1
   448    513    514 1
   449    514    515 1
   450    514    516 1
   451    515    519 1
   452    516    517 1
   453    516    518 1
   454    518    519 1
   455    519    520 1
   456    520    521 ar
   457    520    530 ar
   458    521    522 ar
   459    522    523 ar
   460    523    524 1
   461    523    530 ar
   462    524    525 2
   463    524    526 am
   464    526    527 1
   465    527    528 2
   466    527    529 2
   467    529    530 1
   468    542    543 1
   469    542    544 1
   470    542    545 1
   471    545    546 1
   472    546    547 1
   473    547    548 1
   474    547    549 1
   475    548    552 1
   476    549    550 1
   477    549    551 1
   478    551    552 1
   479    552    553 1
   480    553    554 am
   481    553    561 1
   482    554    555 2
   483    554    556 am
   484    556    557 am
   485    557    558 2
   486    557    559 1
   487    559    560 1
   488    559    561 2
   489    574    575 1
   490    574    576 1
   491    574    577 1
   492    577    578 1
   493    578    579 1
   494    579    580 1
   495    579    581 1
   496    580    584 1
   497    581    582 1
   498    581    583 1
   499    583    584 1
   500    584    585 1
   501    585    586 ar
   502    585    595 ar
   503    586    587 ar
   504    587    588 ar
   505    588    589 1
   506    588    595 ar
   507    589    590 2
   508    589    591 am
   509    591    592 1
   510    592    593 2
   511    592    594 2
   512    594    595 1
   513    607    608 1
   514    607    609 1
   515    607    610 1
   516    610    611 1
   517    611    612 1
   518    612    613 1
   519    612    614 1
   520    613    617 1
   521    614    615 1
   522    614    616 1
   523    616    617 1
   524    617    618 1
   525    618    619 ar
   526    618    627 ar
   527    619    620 ar
   528    620    621 ar
   529    621    622 ar
   530    621    627 ar
   531    622    623 1
   532    622    624 ar
   533    624    625 ar
   534    625    626 ar
   535    626    627 ar
   536    639    640 1
   537    639    641 1
   538    639    642 1
   539    642    643 1
   540    643    644 1
   541    644    645 1
   542    644    646 1
   543    645    649 1
   544    646    647 1
   545    646    648 1
   546    648    649 1
   547    649    650 1
   548    650    651 ar
   549    650    659 ar
   550    651    652 ar
   551    652    653 ar
   552    653    654 ar
   553    653    659 ar
   554    654    655 1
   555    654    656 ar
   556    656    657 ar
   557    657    658 ar
   558    658    659 ar
   559    671    672 1
   560    671    673 1
   561    671    674 1
   562    674    675 1
   563    675    676 1
   564    676    677 1
   565    676    678 1
   566    677    681 1
   567    678    679 1
   568    678    680 1
   569    680    681 1
   570    681    682 1
   571    682    683 am
   572    682    690 1
   573    683    684 2
   574    683    685 am
   575    685    686 am
   576    686    687 2
   577    686    688 1
   578    688    689 1
   579    688    690 2
   580    703    704 1
   581    703    705 1
   582    703    706 1
   583    706    707 1
   584    707    708 1
   585    708    709 1
   586    708    710 1
   587    709    713 1
   588    710    711 1
   589    710    712 1
   590    712    713 1
   591    713    714 1
   592    714    715 am
   593    714    722 1
   594    715    716 2
   595    715    717 am
   596    717    718 am
   597    718    719 2
   598    718    720 1
   599    720    721 1
   600    720    722 2
   601    735    736 1
   602    735    737 1
   603    735    738 1
   604    738    739 1
   605    739    740 1
   606    740    741 1
   607    740    742 1
   608    741    745 1
   609    742    743 1
   610    742    744 1
   611    744    745 1
   612    745    746 1
   613    746    747 am
   614    746    753 1
   615    747    748 2
   616    747    749 1
   617    749    750 2
   618    750    751 2
   619    750    752 2
   620    752    753 2
   621    765    766 1
   622    765    767 1
   623    765    768 1
   624    768    769 1
   625    769    770 1
   626    770    771 1
   627    770    772 1
   628    771    775 1
   629    772    773 1
   630    772    774 1
   631    774    775 1
   632    775    776 1
   633    776    777 ar
   634    776    785 ar
   635    777    778 ar
   636    778    779 ar
   637    779    780 ar
   638    779    785 ar
   639    780    781 1
   640    780    782 ar
   641    782    783 ar
   642    783    784 ar
   643    784    785 ar
   644    797    798 1
   645    797    799 1
   646    797    800 1
   647    800    801 1
   648    801    802 1
   649    802    803 1
   650    802    804 1
   651    803    807 1
   652    804    805 1
   653    804    806 1
   654    806    807 1
   655    807    808 1
   656    808    809 am
   657    808    815 1
   658    809    810 2
   659    809    811 1
   660    811    812 2
   661    812    813 2
   662    812    814 2
   663    814    815 2
   664    213    195 1
   665    214    195 1
   666    215    196 1
   667    216    198 1
   668    217    200 1
   669    218    200 1
   670    219    201 1
   671    220    203 1
   672    221    208 1
   673    244    228 1
   674    245    228 1
   675    246    229 1
   676    247    231 1
   677    248    233 1
   678    249    233 1
   679    250    234 1
   680    251    238 1
   681    252    243 1
   682    278    260 1
   683    279    260 1
   684    280    261 1
   685    281    263 1
   686    282    265 1
   687    283    265 1
   688    284    266 1
   689    285    268 1
   690    286    273 1
   691    310    293 1
   692    311    293 1
   693    312    294 1
   694    313    296 1
   695    314    298 1
   696    315    298 1
   697    316    299 1
   698    317    301 1
   699    318    307 1
   700    342    325 1
   701    343    325 1
   702    344    326 1
   703    345    328 1
   704    346    330 1
   705    347    330 1
   706    348    331 1
   707    349    333 1
   708    350    339 1
   709    373    357 1
   710    374    357 1
   711    375    358 1
   712    376    360 1
   713    377    362 1
   714    378    362 1
   715    379    363 1
   716    380    367 1
   717    381    372 1
   718    405    389 1
   719    406    389 1
   720    407    390 1
   721    408    392 1
   722    409    394 1
   723    410    394 1
   724    411    395 1
   725    412    399 1
   726    413    404 1
   727    436    421 1
   728    437    421 1
   729    438    422 1
   730    439    424 1
   731    440    426 1
   732    441    426 1
   733    442    427 1
   734    443    434 1
   735    444    435 1
   736    468    451 1
   737    469    451 1
   738    470    452 1
   739    471    454 1
   740    472    456 1
   741    473    456 1
   742    474    457 1
   743    475    459 1
   744    476    465 1
   745    498    483 1
   746    499    483 1
   747    500    484 1
   748    501    486 1
   749    502    488 1
   750    503    488 1
   751    504    489 1
   752    505    496 1
   753    506    497 1
   754    531    513 1
   755    532    513 1
   756    533    514 1
   757    534    516 1
   758    535    518 1
   759    536    518 1
   760    537    519 1
   761    538    521 1
   762    539    526 1
   763    562    546 1
   764    563    546 1
   765    564    547 1
   766    565    549 1
   767    566    551 1
   768    567    551 1
   769    568    552 1
   770    569    556 1
   771    570    561 1
   772    596    578 1
   773    597    578 1
   774    598    579 1
   775    599    581 1
   776    600    583 1
   777    601    583 1
   778    602    584 1
   779    603    586 1
   780    604    591 1
   781    628    611 1
   782    629    611 1
   783    630    612 1
   784    631    614 1
   785    632    616 1
   786    633    616 1
   787    634    617 1
   788    635    619 1
   789    636    625 1
   790    660    643 1
   791    661    643 1
   792    662    644 1
   793    663    646 1
   794    664    648 1
   795    665    648 1
   796    666    649 1
   797    667    651 1
   798    668    657 1
   799    691    675 1
   800    692    675 1
   801    693    676 1
   802    694    678 1
   803    695    680 1
   804    696    680 1
   805    697    681 1
   806    698    685 1
   807    699    690 1
   808    723    707 1
   809    724    707 1
   810    725    708 1
   811    726    710 1
   812    727    712 1
   813    728    712 1
   814    729    713 1
   815    730    717 1
   816    731    722 1
   817    754    739 1
   818    755    739 1
   819    756    740 1
   820    757    742 1
   821    758    744 1
   822    759    744 1
   823    760    745 1
   824    761    752 1
   825    762    753 1
   826    786    769 1
   827    787    769 1
   828    788    770 1
   829    789    772 1
   830    790    774 1
   831    791    774 1
   832    792    775 1
   833    793    777 1
   834    794    783 1
   835    816    801 1
   836    817    801 1
   837    818    802 1
   838    819    804 1
   839    820    806 1
   840    821    806 1
   841    822    807 1
   842    823    814 1
   843    824    815 1
   844    222    210 1
   845    223    210 1
   846    287    275 1
   847    288    275 1
   848    445    433 1
   849    446    433 1
   850    507    495 1
   851    508    495 1
   852    540    528 1
   853    541    528 1
   854    605    593 1
   855    606    593 1
   856    763    751 1
   857    764    751 1
   858    825    813 1
   859    826    813 1
   860    319    305 1
   861    320    305 1
   862    351    337 1
   863    352    337 1
   864    477    463 1
   865    478    463 1
   866    637    623 1
   867    638    623 1
   868    669    655 1
   869    670    655 1
   870    795    781 1
   871    796    781 1
   872    253    242 1
   873    254    242 1
   874    255    242 1
   875    382    371 1
   876    383    371 1
   877    384    371 1
   878    414    403 1
   879    415    403 1
   880    416    403 1
   881    571    560 1
   882    572    560 1
   883    573    560 1
   884    700    689 1
   885    701    689 1
   886    702    689 1
   887    732    721 1
   888    733    721 1
   889    734    721 1
   890    487    827 1
   891    509   1441 1
   892    835    860 1
   893    868    892 1
   894    900    925 1
   895    933    957 1
   896    965    989 1
   897    997   1021 1
   898   1029   1053 1
   899   1061   1083 1
   900   1091   1115 1
   901   1153   1178 1
   902   1186   1210 1
   903   1218   1243 1
   904   1251   1275 1
   905   1283   1307 1
   906   1315   1339 1
   907   1347   1371 1
   908   1379   1401 1
   909   1409   1433 1
   910    827    828 1
   911    827    829 1
   912    827    830 1
   913    830    831 1
   914    831    832 1
   915    832    833 1
   916    832    834 1
   917    833    837 1
   918    834    835 1
   919    834    836 1
   920    836    837 1
   921    837    838 1
   922    838    839 ar
   923    838    848 ar
   924    839    840 ar
   925    840    841 ar
   926    841    842 1
   927    841    848 ar
   928    842    843 2
   929    842    844 am
   930    844    845 1
   931    845    846 2
   932    845    847 2
   933    847    848 1
   934    860    861 1
   935    860    862 1
   936    860    863 1
   937    863    864 1
   938    864    865 1
   939    865    866 1
   940    865    867 1
   941    866    870 1
   942    867    868 1
   943    867    869 1
   944    869    870 1
   945    870    871 1
   946    871    872 am
   947    871    879 1
   948    872    873 2
   949    872    874 am
   950    874    875 am
   951    875    876 2
   952    875    877 1
   953    877    878 1
   954    877    879 2
   955    892    893 1
   956    892    894 1
   957    892    895 1
   958    895    896 1
   959    896    897 1
   960    897    898 1
   961    897    899 1
   962    898    902 1
   963    899    900 1
   964    899    901 1
   965    901    902 1
   966    902    903 1
   967    903    904 ar
   968    903    913 ar
   969    904    905 ar
   970    905    906 ar
   971    906    907 1
   972    906    913 ar
   973    907    908 2
   974    907    909 am
   975    909    910 1
   976    910    911 2
   977    910    912 2
   978    912    913 1
   979    925    926 1
   980    925    927 1
   981    925    928 1
   982    928    929 1
   983    929    930 1
   984    930    931 1
   985    930    932 1
   986    931    935 1
   987    932    933 1
   988    932    934 1
   989    934    935 1
   990    935    936 1
   991    936    937 ar
   992    936    945 ar
   993    937    938 ar
   994    938    939 ar
   995    939    940 ar
   996    939    945 ar
   997    940    941 1
   998    940    942 ar
   999    942    943 ar
  1000    943    944 ar
  1001    944    945 ar
  1002    957    958 1
  1003    957    959 1
  1004    957    960 1
  1005    960    961 1
  1006    961    962 1
  1007    962    963 1
  1008    962    964 1
  1009    963    967 1
  1010    964    965 1
  1011    964    966 1
  1012    966    967 1
  1013    967    968 1
  1014    968    969 ar
  1015    968    977 ar
  1016    969    970 ar
  1017    970    971 ar
  1018    971    972 ar
  1019    971    977 ar
  1020    972    973 1
  1021    972    974 ar
  1022    974    975 ar
  1023    975    976 ar
  1024    976    977 ar
  1025    989    990 1
  1026    989    991 1
  1027    989    992 1
  1028    992    993 1
  1029    993    994 1
  1030    994    995 1
  1031    994    996 1
  1032    995    999 1
  1033    996    997 1
  1034    996    998 1
  1035    998    999 1
  1036    999   1000 1
  1037   1000   1001 am
  1038   1000   1008 1
  1039   1001   1002 2
  1040   1001   1003 am
  1041   1003   1004 am
  1042   1004   1005 2
  1043   1004   1006 1
  1044   1006   1007 1
  1045   1006   1008 2
  1046   1021   1022 1
  1047   1021   1023 1
  1048   1021   1024 1
  1049   1024   1025 1
  1050   1025   1026 1
  1051   1026   1027 1
  1052   1026   1028 1
  1053   1027   1031 1
  1054   1028   1029 1
  1055   1028   1030 1
  1056   1030   1031 1
  1057   1031   1032 1
  1058   1032   1033 am
  1059   1032   1040 1
  1060   1033   1034 2
  1061   1033   1035 am
  1062   1035   1036 am
  1063   1036   1037 2
  1064   1036   1038 1
  1065   1038   1039 1
  1066   1038   1040 2
  1067   1053   1054 1
  1068   1053   1055 1
  1069   1053   1056 1
  1070   1056   1057 1
  1071   1057   1058 1
  1072   1058   1059 1
  1073   1058   1060 1
  1074   1059   1063 1
  1075   1060   1061 1
  1076   1060   1062 1
  1077   1062   1063 1
  1078   1063   1064 1
  1079   1064   1065 am
  1080   1064   1071 1
  1081   1065   1066 2
  1082   1065   1067 1
  1083   1067   1068 2
  1084   1068   1069 2
  1085   1068   1070 2
  1086   1070   1071 2
  1087   1083   1084 1
  1088   1083   1085 1
  1089   1083   1086 1
  1090   1086   1087 1
  1091   1087   1088 1
  1092   1088   1089 1
  1093   1088   1090 1
  1094   1089   1093 1
  1095   1090   1091 1
  1096   1090   1092 1
  1097   1092   1093 1
  1098   1093   1094 1
  1099   1094   1095 ar
  1100   1094   1103 ar
  1101   1095   1096 ar
  1102   1096   1097 ar
  1103   1097   1098 ar
  1104   1097   1103 ar
  1105   1098   1099 1
  1106   1098   1100 ar
  1107   1100   1101 ar
  1108   1101   1102 ar
  1109   1102   1103 ar
  1110   1115   1116 1
  1111   1115   1117 1
  1112   1115   1118 1
  1113   1118   1119 1
  1114   1119   1120 1
  1115   1120   1121 1
  1116   1120   1122 1
  1117   1121   1125 1
  1118   1122   1123 1
  1119   1122   1124 1
  1120   1124   1125 1
  1121   1125   1126 1
  1122   1126   1127 am
  1123   1126   1133 1
  1124   1127   1128 2
  1125   1127   1129 1
  1126   1129   1130 2
  1127   1130   1131 2
  1128   1130   1132 2
  1129   1132   1133 2
  1130   1145   1146 1
  1131   1145   1147 1
  1132   1145   1148 1
  1133   1148   1149 1
  1134   1149   1150 1
  1135   1150   1151 1
  1136   1150   1152 1
  1137   1151   1155 1
  1138   1152   1153 1
  1139   1152   1154 1
  1140   1154   1155 1
  1141   1155   1156 1
  1142   1156   1157 ar
  1143   1156   1166 ar
  1144   1157   1158 ar
  1145   1158   1159 ar
  1146   1159   1160 1
  1147   1159   1166 ar
  1148   1160   1161 2
  1149   1160   1162 am
  1150   1162   1163 1
  1151   1163   1164 2
  1152   1163   1165 2
  1153   1165   1166 1
  1154   1178   1179 1
  1155   1178   1180 1
  1156   1178   1181 1
  1157   1181   1182 1
  1158   1182   1183 1
  1159   1183   1184 1
  1160   1183   1185 1
  1161   1184   1188 1
  1162   1185   1186 1
  1163   1185   1187 1
  1164   1187   1188 1
  1165   1188   1189 1
  1166   1189   1190 am
  1167   1189   1197 1
  1168   1190   1191 2
  1169   1190   1192 am
  1170   1192   1193 am
  1171   1193   1194 2
  1172   1193   1195 1
  1173   1195   1196 1
  1174   1195   1197 2
  1175   1210   1211 1
  1176   1210   1212 1
  1177   1210   1213 1
  1178   1213   1214 1
  1179   1214   1215 1
  1180   1215   1216 1
  1181   1215   1217 1
  1182   1216   1220 1
  1183   1217   1218 1
  1184   1217   1219 1
  1185   1219   1220 1
  1186   1220   1221 1
  1187   1221   1222 ar
  1188   1221   1231 ar
  1189   1222   1223 ar
  1190   1223   1224 ar
  1191   1224   1225 1
  1192   1224   1231 ar
  1193   1225   1226 2
  1194   1225   1227 am
  1195   1227   1228 1
  1196   1228   1229 2
  1197   1228   1230 2
  1198   1230   1231 1
  1199   1243   1244 1
  1200   1243   1245 1
  1201   1243   1246 1
  1202   1246   1247 1
  1203   1247   1248 1
  1204   1248   1249 1
  1205   1248   1250 1
  1206   1249   1253 1
  1207   1250   1251 1
  1208   1250   1252 1
  1209   1252   1253 1
  1210   1253   1254 1
  1211   1254   1255 ar
  1212   1254   1263 ar
  1213   1255   1256 ar
  1214   1256   1257 ar
  1215   1257   1258 ar
  1216   1257   1263 ar
  1217   1258   1259 1
  1218   1258   1260 ar
  1219   1260   1261 ar
  1220   1261   1262 ar
  1221   1262   1263 ar
  1222   1275   1276 1
  1223   1275   1277 1
  1224   1275   1278 1
  1225   1278   1279 1
  1226   1279   1280 1
  1227   1280   1281 1
  1228   1280   1282 1
  1229   1281   1285 1
  1230   1282   1283 1
  1231   1282   1284 1
  1232   1284   1285 1
  1233   1285   1286 1
  1234   1286   1287 ar
  1235   1286   1295 ar
  1236   1287   1288 ar
  1237   1288   1289 ar
  1238   1289   1290 ar
  1239   1289   1295 ar
  1240   1290   1291 1
  1241   1290   1292 ar
  1242   1292   1293 ar
  1243   1293   1294 ar
  1244   1294   1295 ar
  1245   1307   1308 1
  1246   1307   1309 1
  1247   1307   1310 1
  1248   1310   1311 1
  1249   1311   1312 1
  1250   1312   1313 1
  1251   1312   1314 1
  1252   1313   1317 1
  1253   1314   1315 1
  1254   1314   1316 1
  1255   1316   1317 1
  1256   1317   1318 1
  1257   1318   1319 am
  1258   1318   1326 1
  1259   1319   1320 2
  1260   1319   1321 am
  1261   1321   1322 am
  1262   1322   1323 2
  1263   1322   1324 1
  1264   1324   1325 1
  1265   1324   1326 2
  1266   1339   1340 1
  1267   1339   1341 1
  1268   1339   1342 1
  1269   1342   1343 1
  1270   1343   1344 1
  1271   1344   1345 1
  1272   1344   1346 1
  1273   1345   1349 1
  1274   1346   1347 1
  1275   1346   1348 1
  1276   1348   1349 1
  1277   1349   1350 1
  1278   1350   1351 am
  1279   1350   1358 1
  1280   1351   1352 2
  1281   1351   1353 am
  1282   1353   1354 am
  1283   1354   1355 2
  1284   1354   1356 1
  1285   1356   1357 1
  1286   1356   1358 2
  1287   1371   1372 1
  1288   1371   1373 1
  1289   1371   1374 1
  1290   1374   1375 1
  1291   1375   1376 1
  1292   1376   1377 1
  1293   1376   1378 1
  1294   1377   1381 1
  1295   1378   1379 1
  1296   1378   1380 1
  1297   1380   1381 1
  1298   1381   1382 1
  1299   1382   1383 am
  1300   1382   1389 1
  1301   1383   1384 2
  1302   1383   1385 1
  1303   1385   1386 2
  1304   1386   1387 2
  1305   1386   1388 2
  1306   1388   1389 2
  1307   1401   1402 1
  1308   1401   1403 1
  1309   1401   1404 1
  1310   1404   1405 1
  1311   1405   1406 1
  1312   1406   1407 1
  1313   1406   1408 1
  1314   1407   1411 1
  1315   1408   1409 1
  1316   1408   1410 1
  1317   1410   1411 1
  1318   1411   1412 1
  1319   1412   1413 ar
  1320   1412   1421 ar
  1321   1413   1414 ar
  1322   1414   1415 ar
  1323   1415   1416 ar
  1324   1415   1421 ar
  1325   1416   1417 1
  1326   1416   1418 ar
  1327   1418   1419 ar
  1328   1419   1420 ar
  1329   1420   1421 ar
  1330   1433   1434 1
  1331   1433   1435 1
  1332   1433   1436 1
  1333   1436   1437 1
  1334   1437   1438 1
  1335   1438   1439 1
  1336   1438   1440 1
  1337   1439   1443 1
  1338   1440   1441 1
  1339   1440   1442 1
  1340   1442   1443 1
  1341   1443   1444 1
  1342   1444   1445 am
  1343   1444   1451 1
  1344   1445   1446 2
  1345   1445   1447 1
  1346   1447   1448 2
  1347   1448   1449 2
  1348   1448   1450 2
  1349   1450   1451 2
  1350    849    831 1
  1351    850    831 1
  1352    851    832 1
  1353    852    834 1
  1354    853    836 1
  1355    854    836 1
  1356    855    837 1
  1357    856    839 1
  1358    857    844 1
  1359    880    864 1
  1360    881    864 1
  1361    882    865 1
  1362    883    867 1
  1363    884    869 1
  1364    885    869 1
  1365    886    870 1
  1366    887    874 1
  1367    888    879 1
  1368    914    896 1
  1369    915    896 1
  1370    916    897 1
  1371    917    899 1
  1372    918    901 1
  1373    919    901 1
  1374    920    902 1
  1375    921    904 1
  1376    922    909 1
  1377    946    929 1
  1378    947    929 1
  1379    948    930 1
  1380    949    932 1
  1381    950    934 1
  1382    951    934 1
  1383    952    935 1
  1384    953    937 1
  1385    954    943 1
  1386    978    961 1
  1387    979    961 1
  1388    980    962 1
  1389    981    964 1
  1390    982    966 1
  1391    983    966 1
  1392    984    967 1
  1393    985    969 1
  1394    986    975 1
  1395   1009    993 1
  1396   1010    993 1
  1397   1011    994 1
  1398   1012    996 1
  1399   1013    998 1
  1400   1014    998 1
  1401   1015    999 1
  1402   1016   1003 1
  1403   1017   1008 1
  1404   1041   1025 1
  1405   1042   1025 1
  1406   1043   1026 1
  1407   1044   1028 1
  1408   1045   1030 1
  1409   1046   1030 1
  1410   1047   1031 1
  1411   1048   1035 1
  1412   1049   1040 1
  1413   1072   1057 1
  1414   1073   1057 1
  1415   1074   1058 1
  1416   1075   1060 1
  1417   1076   1062 1
  1418   1077   1062 1
  1419   1078   1063 1
  1420   1079   1070 1
  1421   1080   1071 1
  1422   1104   1087 1
  1423   1105   1087 1
  1424   1106   1088 1
  1425   1107   1090 1
  1426   1108   1092 1
  1427   1109   1092 1
  1428   1110   1093 1
  1429   1111   1095 1
  1430   1112   1101 1
  1431   1134   1119 1
  1432   1135   1119 1
  1433   1136   1120 1
  1434   1137   1122 1
  1435   1138   1124 1
  1436   1139   1124 1
  1437   1140   1125 1
  1438   1141   1132 1
  1439   1142   1133 1
  1440   1167   1149 1
  1441   1168   1149 1
  1442   1169   1150 1
  1443   1170   1152 1
  1444   1171   1154 1
  1445   1172   1154 1
  1446   1173   1155 1
  1447   1174   1157 1
  1448   1175   1162 1
  1449   1198   1182 1
  1450   1199   1182 1
  1451   1200   1183 1
  1452   1201   1185 1
  1453   1202   1187 1
  1454   1203   1187 1
  1455   1204   1188 1
  1456   1205   1192 1
  1457   1206   1197 1
  1458   1232   1214 1
  1459   1233   1214 1
  1460   1234   1215 1
  1461   1235   1217 1
  1462   1236   1219 1
  1463   1237   1219 1
  1464   1238   1220 1
  1465   1239   1222 1
  1466   1240   1227 1
  1467   1264   1247 1
  1468   1265   1247 1
  1469   1266   1248 1
  1470   1267   1250 1
  1471   1268   1252 1
  1472   1269   1252 1
  1473   1270   1253 1
  1474   1271   1255 1
  1475   1272   1261 1
  1476   1296   1279 1
  1477   1297   1279 1
  1478   1298   1280 1
  1479   1299   1282 1
  1480   1300   1284 1
  1481   1301   1284 1
  1482   1302   1285 1
  1483   1303   1287 1
  1484   1304   1293 1
  1485   1327   1311 1
  1486   1328   1311 1
  1487   1329   1312 1
  1488   1330   1314 1
  1489   1331   1316 1
  1490   1332   1316 1
  1491   1333   1317 1
  1492   1334   1321 1
  1493   1335   1326 1
  1494   1359   1343 1
  1495   1360   1343 1
  1496   1361   1344 1
  1497   1362   1346 1
  1498   1363   1348 1
  1499   1364   1348 1
  1500   1365   1349 1
  1501   1366   1353 1
  1502   1367   1358 1
  1503   1390   1375 1
  1504   1391   1375 1
  1505   1392   1376 1
  1506   1393   1378 1
  1507   1394   1380 1
  1508   1395   1380 1
  1509   1396   1381 1
  1510   1397   1388 1
  1511   1398   1389 1
  1512   1422   1405 1
  1513   1423   1405 1
  1514   1424   1406 1
  1515   1425   1408 1
  1516   1426   1410 1
  1517   1427   1410 1
  1518   1428   1411 1
  1519   1429   1413 1
  1520   1430   1419 1
  1521   1452   1437 1
  1522   1453   1437 1
  1523   1454   1438 1
  1524   1455   1440 1
  1525   1456   1442 1
  1526   1457   1442 1
  1527   1458   1443 1
  1528   1459   1450 1
  1529   1460   1451 1
  1530    858    846 1
  1531    859    846 1
  1532    923    911 1
  1533    924    911 1
  1534   1081   1069 1
  1535   1082   1069 1
  1536   1143   1131 1
  1537   1144   1131 1
  1538   1176   1164 1
  1539   1177   1164 1
  1540   1241   1229 1
  1541   1242   1229 1
  1542   1399   1387 1
  1543   1400   1387 1
  1544   1461   1449 1
  1545   1462   1449 1
  1546    955    941 1
  1547    956    941 1
  1548    987    973 1
  1549    988    973 1
  1550   1113   1099 1
  1551   1114   1099 1
  1552   1273   1259 1
  1553   1274   1259 1
  1554   1305   1291 1
  1555   1306   1291 1
  1556   1431   1417 1
  1557   1432   1417 1
  1558    889    878 1
  1559    890    878 1
  1560    891    878 1
  1561   1018   1007 1
  1562   1019   1007 1
  1563   1020   1007 1
  1564   1050   1039 1
  1565   1051   1039 1
  1566   1052   1039 1
  1567   1207   1196 1
  1568   1208   1196 1
  1569   1209   1196 1
  1570   1336   1325 1
  1571   1337   1325 1
  1572   1338   1325 1
  1573   1368   1357 1
  1574   1369   1357 1
  1575   1370   1357 1
  1576   1123   1463 1
  1577   1145   2077 1
  1578   1471   1496 1
  1579   1504   1528 1
  1580   1536   1561 1
  1581   1569   1593 1
  1582   1601   1625 1
  1583   1633   1657 1
  1584   1665   1689 1
  1585   1697   1719 1
  1586   1727   1751 1
  1587   1789   1814 1
  1588   1822   1846 1
  1589   1854   1879 1
  1590   1887   1911 1
  1591   1919   1943 1
  1592   1951   1975 1
  1593   1983   2007 1
  1594   2015   2037 1
  1595   2045   2069 1
  1596   1463   1464 1
  1597   1463   1465 1
  1598   1463   1466 1
  1599   1466   1467 1
  1600   1467   1468 1
  1601   1468   1469 1
  1602   1468   1470 1
  1603   1469   1473 1
  1604   1470   1471 1
  1605   1470   1472 1
  1606   1472   1473 1
  1607   1473   1474 1
  1608   1474   1475 ar
  1609   1474   1484 ar
  1610   1475   1476 ar
  1611   1476   1477 ar
  1612   1477   1478 1
  1613   1477   1484 ar
  1614   1478   1479 2
  1615   1478   1480 am
  1616   1480   1481 1
  1617   1481   1482 2
  1618   1481   1483 2
  1619   1483   1484 1
  1620   1496   1497 1
  1621   1496   1498 1
  1622   1496   1499 1
  1623   1499   1500 1
  1624   1500   1501 1
  1625   1501   1502 1
  1626   1501   1503 1
  1627   1502   1506 1
  1628   1503   1504 1
  1629   1503   1505 1
  1630   1505   1506 1
  1631   1506   1507 1
  1632   1507   1508 am
  1633   1507   1515 1
  1634   1508   1509 2
  1635   1508   1510 am
  1636   1510   1511 am
  1637   1511   1512 2
  1638   1511   1513 1
  1639   1513   1514 1
  1640   1513   1515 2
  1641   1528   1529 1
  1642   1528   1530 1
  1643   1528   1531 1
  1644   1531   1532 1
  1645   1532   1533 1
  1646   1533   1534 1
  1647   1533   1535 1
  1648   1534   1538 1
  1649   1535   1536 1
  1650   1535   1537 1
  1651   1537   1538 1
  1652   1538   1539 1
  1653   1539   1540 ar
  1654   1539   1549 ar
  1655   1540   1541 ar
  1656   1541   1542 ar
  1657   1542   1543 1
  1658   1542   1549 ar
  1659   1543   1544 2
  1660   1543   1545 am
  1661   1545   1546 1
  1662   1546   1547 2
  1663   1546   1548 2
  1664   1548   1549 1
  1665   1561   1562 1
  1666   1561   1563 1
  1667   1561   1564 1
  1668   1564   1565 1
  1669   1565   1566 1
  1670   1566   1567 1
  1671   1566   1568 1
  1672   1567   1571 1
  1673   1568   1569 1
  1674   1568   1570 1
  1675   1570   1571 1
  1676   1571   1572 1
  1677   1572   1573 ar
  1678   1572   1581 ar
  1679   1573   1574 ar
  1680   1574   1575 ar
  1681   1575   1576 ar
  1682   1575   1581 ar
  1683   1576   1577 1
  1684   1576   1578 ar
  1685   1578   1579 ar
  1686   1579   1580 ar
  1687   1580   1581 ar
  1688   1593   1594 1
  1689   1593   1595 1
  1690   1593   1596 1
  1691   1596   1597 1
  1692   1597   1598 1
  1693   1598   1599 1
  1694   1598   1600 1
  1695   1599   1603 1
  1696   1600   1601 1
  1697   1600   1602 1
  1698   1602   1603 1
  1699   1603   1604 1
  1700   1604   1605 ar
  1701   1604   1613 ar
  1702   1605   1606 ar
  1703   1606   1607 ar
  1704   1607   1608 ar
  1705   1607   1613 ar
  1706   1608   1609 1
  1707   1608   1610 ar
  1708   1610   1611 ar
  1709   1611   1612 ar
  1710   1612   1613 ar
  1711   1625   1626 1
  1712   1625   1627 1
  1713   1625   1628 1
  1714   1628   1629 1
  1715   1629   1630 1
  1716   1630   1631 1
  1717   1630   1632 1
  1718   1631   1635 1
  1719   1632   1633 1
  1720   1632   1634 1
  1721   1634   1635 1
  1722   1635   1636 1
  1723   1636   1637 am
  1724   1636   1644 1
  1725   1637   1638 2
  1726   1637   1639 am
  1727   1639   1640 am
  1728   1640   1641 2
  1729   1640   1642 1
  1730   1642   1643 1
  1731   1642   1644 2
  1732   1657   1658 1
  1733   1657   1659 1
  1734   1657   1660 1
  1735   1660   1661 1
  1736   1661   1662 1
  1737   1662   1663 1
  1738   1662   1664 1
  1739   1663   1667 1
  1740   1664   1665 1
  1741   1664   1666 1
  1742   1666   1667 1
  1743   1667   1668 1
  1744   1668   1669 am
  1745   1668   1676 1
  1746   1669   1670 2
  1747   1669   1671 am
  1748   1671   1672 am
  1749   1672   1673 2
  1750   1672   1674 1
  1751   1674   1675 1
  1752   1674   1676 2
  1753   1689   1690 1
  1754   1689   1691 1
  1755   1689   1692 1
  1756   1692   1693 1
  1757   1693   1694 1
  1758   1694   1695 1
  1759   1694   1696 1
  1760   1695   1699 1
  1761   1696   1697 1
  1762   1696   1698 1
  1763   1698   1699 1
  1764   1699   1700 1
  1765   1700   1701 am
  1766   1700   1707 1
  1767   1701   1702 2
  1768   1701   1703 1
  1769   1703   1704 2
  1770   1704   1705 2
  1771   1704   1706 2
  1772   1706   1707 2
  1773   1719   1720 1
  1774   1719   1721 1
  1775   1719   1722 1
  1776   1722   1723 1
  1777   1723   1724 1
  1778   1724   1725 1
  1779   1724   1726 1
  1780   1725   1729 1
  1781   1726   1727 1
  1782   1726   1728 1
  1783   1728   1729 1
  1784   1729   1730 1
  1785   1730   1731 ar
  1786   1730   1739 ar
  1787   1731   1732 ar
  1788   1732   1733 ar
  1789   1733   1734 ar
  1790   1733   1739 ar
  1791   1734   1735 1
  1792   1734   1736 ar
  1793   1736   1737 ar
  1794   1737   1738 ar
  1795   1738   1739 ar
  1796   1751   1752 1
  1797   1751   1753 1
  1798   1751   1754 1
  1799   1754   1755 1
  1800   1755   1756 1
  1801   1756   1757 1
  1802   1756   1758 1
  1803   1757   1761 1
  1804   1758   1759 1
  1805   1758   1760 1
  1806   1760   1761 1
  1807   1761   1762 1
  1808   1762   1763 am
  1809   1762   1769 1
  1810   1763   1764 2
  1811   1763   1765 1
  1812   1765   1766 2
  1813   1766   1767 2
  1814   1766   1768 2
  1815   1768   1769 2
  1816   1781   1782 1
  1817   1781   1783 1
  1818   1781   1784 1
  1819   1784   1785 1
  1820   1785   1786 1
  1821   1786   1787 1
  1822   1786   1788 1
  1823   1787   1791 1
  1824   1788   1789 1
  1825   1788   1790 1
  1826   1790   1791 1
  1827   1791   1792 1
  1828   1792   1793 ar
  1829   1792   1802 ar
  1830   1793   1794 ar
  1831   1794   1795 ar
  1832   1795   1796 1
  1833   1795   1802 ar
  1834   1796   1797 2
  1835   1796   1798 am
  1836   1798   1799 1
  1837   1799   1800 2
  1838   1799   1801 2
  1839   1801   1802 1
  1840   1814   1815 1
  1841   1814   1816 1
  1842   1814   1817 1
  1843   1817   1818 1
  1844   1818   1819 1
  1845   1819   1820 1
  1846   1819   1821 1
  1847   1820   1824 1
  1848   1821   1822 1
  1849   1821   1823 1
  1850   1823   1824 1
  1851   1824   1825 1
  1852   1825   1826 am
  1853   1825   1833 1
  1854   1826   1827 2
  1855   1826   1828 am
  1856   1828   1829 am
  1857   1829   1830 2
  1858   1829   1831 1
  1859   1831   1832 1
  1860   1831   1833 2
  1861   1846   1847 1
  1862   1846   1848 1
  1863   1846   1849 1
  1864   1849   1850 1
  1865   1850   1851 1
  1866   1851   1852 1
  1867   1851   1853 1
  1868   1852   1856 1
  1869   1853   1854 1
  1870   1853   1855 1
  1871   1855   1856 1
  1872   1856   1857 1
  1873   1857   1858 ar
  1874   1857   1867 ar
  1875   1858   1859 ar
  1876   1859   1860 ar
  1877   1860   1861 1
  1878   1860   1867 ar
  1879   1861   1862 2
  1880   1861   1863 am
  1881   1863   1864 1
  1882   1864   1865 2
  1883   1864   1866 2
  1884   1866   1867 1
  1885   1879   1880 1
  1886   1879   1881 1
  1887   1879   1882 1
  1888   1882   1883 1
  1889   1883   1884 1
  1890   1884   1885 1
  1891   1884   1886 1
  1892   1885   1889 1
  1893   1886   1887 1
  1894   1886   1888 1
  1895   1888   1889 1
  1896   1889   1890 1
  1897   1890   1891 ar
  1898   1890   1899 ar
  1899   1891   1892 ar
  1900   1892   1893 ar
  1901   1893   1894 ar
  1902   1893   1899 ar
  1903   1894   1895 1
  1904   1894   1896 ar
  1905   1896   1897 ar
  1906   1897   1898 ar
  1907   1898   1899 ar
  1908   1911   1912 1
  1909   1911   1913 1
  1910   1911   1914 1
  1911   1914   1915 1
  1912   1915   1916 1
  1913   1916   1917 1
  1914   1916   1918 1
  1915   1917   1921 1
  1916   1918   1919 1
  1917   1918   1920 1
  1918   1920   1921 1
  1919   1921   1922 1
  1920   1922   1923 ar
  1921   1922   1931 ar
  1922   1923   1924 ar
  1923   1924   1925 ar
  1924   1925   1926 ar
  1925   1925   1931 ar
  1926   1926   1927 1
  1927   1926   1928 ar
  1928   1928   1929 ar
  1929   1929   1930 ar
  1930   1930   1931 ar
  1931   1943   1944 1
  1932   1943   1945 1
  1933   1943   1946 1
  1934   1946   1947 1
  1935   1947   1948 1
  1936   1948   1949 1
  1937   1948   1950 1
  1938   1949   1953 1
  1939   1950   1951 1
  1940   1950   1952 1
  1941   1952   1953 1
  1942   1953   1954 1
  1943   1954   1955 am
  1944   1954   1962 1
  1945   1955   1956 2
  1946   1955   1957 am
  1947   1957   1958 am
  1948   1958   1959 2
  1949   1958   1960 1
  1950   1960   1961 1
  1951   1960   1962 2
  1952   1975   1976 1
  1953   1975   1977 1
  1954   1975   1978 1
  1955   1978   1979 1
  1956   1979   1980 1
  1957   1980   1981 1
  1958   1980   1982 1
  1959   1981   1985 1
  1960   1982   1983 1
  1961   1982   1984 1
  1962   1984   1985 1
  1963   1985   1986 1
  1964   1986   1987 am
  1965   1986   1994 1
  1966   1987   1988 2
  1967   1987   1989 am
  1968   1989   1990 am
  1969   1990   1991 2
  1970   1990   1992 1
  1971   1992   1993 1
  1972   1992   1994 2
  1973   2007   2008 1
  1974   2007   2009 1
  1975   2007   2010 1
  1976   2010   2011 1
  1977   2011   2012 1
  1978   2012   2013 1
  1979   2012   2014 1
  1980   2013   2017 1
  1981   2014   2015 1
  1982   2014   2016 1
  1983   2016   2017 1
  1984   2017   2018 1
  1985   2018   2019 am
  1986   2018   2025 1
  1987   2019   2020 2
  1988   2019   2021 1
  1989   2021   2022 2
  1990   2022   2023 2
  1991   2022   2024 2
  1992   2024   2025 2
  1993   2037   2038 1
  1994   2037   2039 1
  1995   2037   2040 1
  1996   2040   2041 1
  1997   2041   2042 1
  1998   2042   2043 1
  1999   2042   2044 1
  2000   2043   2047 1
  2001   2044   2045 1
  2002   2044   2046 1
  2003   2046   2047 1
  2004   2047   2048 1
  2005   2048   2049 ar
  2006   2048   2057 ar
  2007   2049   2050 ar
  2008   2050   2051 ar
  2009   2051   2052 ar
  2010   2051   2057 ar
  2011   2052   2053 1
  2012   2052   2054 ar
  2013   2054   2055 ar
  2014   2055   2056 ar
  2015   2056   2057 ar
  2016   2069   2070 1
  2017   2069   2071 1
  2018   2069   2072 1
  2019   2072   2073 1
  2020   2073   2074 1
  2021   2074   2075 1
  2022   2074   2076 1
  2023   2075   2079 1
  2024   2076   2077 1
  2025   2076   2078 1
  2026   2078   2079 1
  2027   2079   2080 1
  2028   2080   2081 am
  2029   2080   2087 1
  2030   2081   2082 2
  2031   2081   2083 1
  2032   2083   2084 2
  2033   2084   2085 2
  2034   2084   2086 2
  2035   2086   2087 2
  2036   1485   1467 1
  2037   1486   1467 1
  2038   1487   1468 1
  2039   1488   1470 1
  2040   1489   1472 1
  2041   1490   1472 1
  2042   1491   1473 1
  2043   1492   1475 1
  2044   1493   1480 1
  2045   1516   1500 1
  2046   1517   1500 1
  2047   1518   1501 1
  2048   1519   1503 1
  2049   1520   1505 1
  2050   1521   1505 1
  2051   1522   1506 1
  2052   1523   1510 1
  2053   1524   1515 1
  2054   1550   1532 1
  2055   1551   1532 1
  2056   1552   1533 1
  2057   1553   1535 1
  2058   1554   1537 1
  2059   1555   1537 1
  2060   1556   1538 1
  2061   1557   1540 1
  2062   1558   1545 1
  2063   1582   1565 1
  2064   1583   1565 1
  2065   1584   1566 1
  2066   1585   1568 1
  2067   1586   1570 1
  2068   1587   1570 1
  2069   1588   1571 1
  2070   1589   1573 1
  2071   1590   1579 1
  2072   1614   1597 1
  2073   1615   1597 1
  2074   1616   1598 1
  2075   1617   1600 1
  2076   1618   1602 1
  2077   1619   1602 1
  2078   1620   1603 1
  2079   1621   1605 1
  2080   1622   1611 1
  2081   1645   1629 1
  2082   1646   1629 1
  2083   1647   1630 1
  2084   1648   1632 1
  2085   1649   1634 1
  2086   1650   1634 1
  2087   1651   1635 1
  2088   1652   1639 1
  2089   1653   1644 1
  2090   1677   1661 1
  2091   1678   1661 1
  2092   1679   1662 1
  2093   1680   1664 1
  2094   1681   1666 1
  2095   1682   1666 1
  2096   1683   1667 1
  2097   1684   1671 1
  2098   1685   1676 1
  2099   1708   1693 1
  2100   1709   1693 1
  2101   1710   1694 1
  2102   1711   1696 1
  2103   1712   1698 1
  2104   1713   1698 1
  2105   1714   1699 1
  2106   1715   1706 1
  2107   1716   1707 1
  2108   1740   1723 1
  2109   1741   1723 1
  2110   1742   1724 1
  2111   1743   1726 1
  2112   1744   1728 1
  2113   1745   1728 1
  2114   1746   1729 1
  2115   1747   1731 1
  2116   1748   1737 1
  2117   1770   1755 1
  2118   1771   1755 1
  2119   1772   1756 1
  2120   1773   1758 1
  2121   1774   1760 1
  2122   1775   1760 1
  2123   1776   1761 1
  2124   1777   1768 1
  2125   1778   1769 1
  2126   1803   1785 1
  2127   1804   1785 1
  2128   1805   1786 1
  2129   1806   1788 1
  2130   1807   1790 1
  2131   1808   1790 1
  2132   1809   1791 1
  2133   1810   1793 1
  2134   1811   1798 1
  2135   1834   1818 1
  2136   1835   1818 1
  2137   1836   1819 1
  2138   1837   1821 1
  2139   1838   1823 1
  2140   1839   1823 1
  2141   1840   1824 1
  2142   1841   1828 1
  2143   1842   1833 1
  2144   1868   1850 1
  2145   1869   1850 1
  2146   1870   1851 1
  2147   1871   1853 1
  2148   1872   1855 1
  2149   1873   1855 1
  2150   1874   1856 1
  2151   1875   1858 1
  2152   1876   1863 1
  2153   1900   1883 1
  2154   1901   1883 1
  2155   1902   1884 1
  2156   1903   1886 1
  2157   1904   1888 1
  2158   1905   1888 1
  2159   1906   1889 1
  2160   1907   1891 1
  2161   1908   1897 1
  2162   1932   1915 1
  2163   1933   1915 1
  2164   1934   1916 1
  2165   1935   1918 1
  2166   1936   1920 1
  2167   1937   1920 1
  2168   1938   1921 1
  2169   1939   1923 1
  2170   1940   1929 1
  2171   1963   1947 1
  2172   1964   1947 1
  2173   1965   1948 1
  2174   1966   1950 1
  2175   1967   1952 1
  2176   1968   1952 1
  2177   1969   1953 1
  2178   1970   1957 1
  2179   1971   1962 1
  2180   1995   1979 1
  2181   1996   1979 1
  2182   1997   1980 1
  2183   1998   1982 1
  2184   1999   1984 1
  2185   2000   1984 1
  2186   2001   1985 1
  2187   2002   1989 1
  2188   2003   1994 1
  2189   2026   2011 1
  2190   2027   2011 1
  2191   2028   2012 1
  2192   2029   2014 1
  2193   2030   2016 1
  2194   2031   2016 1
  2195   2032   2017 1
  2196   2033   2024 1
  2197   2034   2025 1
  2198   2058   2041 1
  2199   2059   2041 1
  2200   2060   2042 1
  2201   2061   2044 1
  2202   2062   2046 1
  2203   2063   2046 1
  2204   2064   2047 1
  2205   2065   2049 1
  2206   2066   2055 1
  2207   2088   2073 1
  2208   2089   2073 1
  2209   2090   2074 1
  2210   2091   2076 1
  2211   2092   2078 1
  2212   2093   2078 1
  2213   2094   2079 1
  2214   2095   2086 1
  2215   2096   2087 1
  2216   1494   1482 1
  2217   1495   1482 1
  2218   1559   1547 1
  2219   1560   1547 1
  2220   1717   1705 1
  2221   1718   1705 1
  2222   1779   1767 1
  2223   1780   1767 1
  2224   1812   1800 1
  2225   1813   1800 1
  2226   1877   1865 1
  2227   1878   1865 1
  2228   2035   2023 1
  2229   2036   2023 1
  2230   2097   2085 1
  2231   2098   2085 1
  2232   1591   1577 1
  2233   1592   1577 1
  2234   1623   1609 1
  2235   1624   1609 1
  2236   1749   1735 1
  2237   1750   1735 1
  2238   1909   1895 1
  2239   1910   1895 1
  2240   1941   1927 1
  2241   1942   1927 1
  2242   2067   2053 1
  2243   2068   2053 1
  2244   1525   1514 1
  2245   1526   1514 1
  2246   1527   1514 1
  2247   1654   1643 1
  2248   1655   1643 1
  2249   1656   1643 1
  2250   1686   1675 1
  2251   1687   1675 1
  2252   1688   1675 1
  2253   1843   1832 1
  2254   1844   1832 1
  2255   1845   1832 1
  2256   1972   1961 1
  2257   1973   1961 1
  2258   1974   1961 1
  2259   2004   1993 1
  2260   2005   1993 1
  2261   2006   1993 1
@<TRIPOS>MOLECULE
dna-seg-21-bp34
2162 2330 1 0 0
BIOPOLYMER
NO_CHARGES


@<TRIPOS>ATOM
      1 P         -8.4613    -5.3654  2291.6270 P.3      701 DG      0.0000
      2 OP1       -9.9415    -5.4686  2291.6255 O.co2    701 DG      0.0000
      3 OP2       -8.0916    -4.3133  2292.6827 O.co2    701 DG      0.0000
      4 O5'       -7.6466    -6.7204  2291.8054 O.3      701 DG      0.0000
      5 C5'       -6.9722    -7.5132  2290.8054 C.3      701 DG      0.0000
      6 C4'       -5.5734    -7.8107  2291.3042 C.3      701 DG      0.0000
      7 O4'       -4.6422    -6.8367  2290.8851 O.3      701 DG      0.0000
      8 C3'       -5.3753    -7.9848  2292.7964 C.3      701 DG      0.0000
      9 O3'       -4.7304    -9.2490  2293.1084 O.3      701 DG      0.0000
     10 C2'       -4.5620    -6.7758  2293.2183 C.3      701 DG      0.0000
     11 C1'       -3.8153    -6.3956  2291.9627 C.3      701 DG      0.0000
     12 N9        -3.5838    -4.9400  2291.9336 N.ar     701 DG      0.0000
     13 C8        -4.4673    -3.9117  2292.1625 C.ar     701 DG      0.0000
     14 N7        -3.9326    -2.7149  2292.0728 N.ar     701 DG      0.0000
     15 C5        -2.6010    -2.9700  2291.7558 C.ar     701 DG      0.0000
     16 C6        -1.5021    -2.1048  2291.5299 C.2      701 DG      0.0000
     17 O6        -1.4841    -0.8738  2291.5511 O.2      701 DG      0.0000
     18 N1        -0.3177    -2.7290  2291.2483 N.am     701 DG      0.0000
     19 C2        -0.1950    -4.0163  2291.1877 C.2      701 DG      0.0000
     20 N2         1.0044    -4.3365  2290.8909 N.pl3    701 DG      0.0000
     21 N3        -1.2153    -4.9498  2291.3964 N.2      701 DG      0.0000
     22 C4        -2.3729    -4.3306  2291.6690 C.ar     701 DG      0.0000
     23 H5'       -7.5136    -8.4459  2290.6467 H        701 DG      0.0000
     24 H5''      -6.9179    -6.9562  2289.8701 H        701 DG      0.0000
     25 H4'       -5.2713    -8.7492  2290.8395 H        701 DG      0.0000
     26 H3'       -6.3463    -7.9498  2293.2904 H        701 DG      0.0000
     27 H2'       -5.2120    -5.9644  2293.5453 H        701 DG      0.0000
     28 H2''      -3.8626    -7.0453  2294.0098 H        701 DG      0.0000
     29 H1'       -2.8601    -6.9198  2291.9307 H        701 DG      0.0000
     30 H8        -5.5094    -4.0736  2292.3956 H        701 DG      0.0000
     31 H1         0.4988    -2.1589  2291.0800 H        701 DG      0.0000
     32 H21        1.6982    -3.6169  2290.7466 H        701 DG      0.0000
     33 H22        1.2597    -5.3095  2290.8005 H        701 DG      0.0000
     34 P         -4.1439    -9.5774  2294.5370 P.3      702 DT      0.0000
     35 OP1       -4.3751   -10.9757  2295.0486 O.co2    702 DT      0.0000
     36 OP2       -4.9924    -8.6795  2295.4556 O.co2    702 DT      0.0000
     37 O5'       -2.6732    -9.0886  2294.5655 O.3      702 DT      0.0000
     38 C5'       -1.5358    -9.9830  2294.4215 C.3      702 DT      0.0000
     39 C4'       -0.3258    -9.0741  2294.4791 C.3      702 DT      0.0000
     40 O4'       -0.6551    -7.7302  2294.2039 O.3      702 DT      0.0000
     41 C3'        0.4143    -9.0251  2295.7918 C.3      702 DT      0.0000
     42 O3'        1.7273    -9.5731  2295.6036 O.3      702 DT      0.0000
     43 C2'        0.4725    -7.5489  2296.1840 C.3      702 DT      0.0000
     44 C1'        0.3612    -6.8950  2294.8313 C.3      702 DT      0.0000
     45 N1        -0.1847    -5.5411  2294.9279 N.am     702 DT      0.0000
     46 C2         0.6786    -4.4978  2294.7300 C.2      702 DT      0.0000
     47 O2         1.8725    -4.6653  2294.4918 O.2      702 DT      0.0000
     48 N3         0.1584    -3.2342  2294.8110 N.am     702 DT      0.0000
     49 C4        -1.1472    -2.9918  2295.0669 C.2      702 DT      0.0000
     50 O4        -1.4781    -1.7781  2295.1122 O.2      702 DT      0.0000
     51 C5        -2.0362    -4.0964  2295.2666 C.2      702 DT      0.0000
     52 C7        -3.4867    -3.8718  2295.5465 C.3      702 DT      0.0000
     53 C6        -1.5187    -5.3288  2295.1852 C.2      702 DT      0.0000
     54 H5'       -1.5112   -10.7081  2295.2350 H        702 DT      0.0000
     55 H5''      -1.5777   -10.4953  2293.4604 H        702 DT      0.0000
     56 H4'        0.3761    -9.4070  2293.7145 H        702 DT      0.0000
     57 H3'       -0.1253    -9.5940  2296.5489 H        702 DT      0.0000
     58 H2'       -0.3588    -7.2729  2296.8328 H        702 DT      0.0000
     59 H2''       1.4268    -7.3096  2296.6532 H        702 DT      0.0000
     60 H1'        1.3047    -6.9185  2294.2859 H        702 DT      0.0000
     61 H3         0.7772    -2.4479  2294.6735 H        702 DT      0.0000
     62 H6        -2.1678    -6.1806  2295.3255 H        702 DT      0.0000
     63 H71       -4.0647    -4.0559  2294.6410 H        702 DT      0.0000
     64 H72       -3.6386    -2.8425  2295.8713 H        702 DT      0.0000
     65 H73       -3.8148    -4.5528  2296.3318 H        702 DT      0.0000
     66 P          2.2484   -10.4312  2296.8835 P.3      703 DG      0.0000
     67 OP1        3.0121   -11.5385  2296.1685 O.co2    703 DG      0.0000
     68 OP2        1.0983   -10.8977  2297.6371 O.co2    703 DG      0.0000
     69 O5'        3.1999    -9.2533  2297.4931 O.3      703 DG      0.0000
     70 C5'        3.9981    -8.6559  2296.4025 C.3      703 DG      0.0000
     71 C4'        4.5972    -7.3825  2296.9225 C.3      703 DG      0.0000
     72 O4'        3.8413    -6.2149  2296.7419 O.3      703 DG      0.0000
     73 C3'        4.9393    -7.4618  2298.4305 C.3      703 DG      0.0000
     74 O3'        6.3346    -7.1084  2298.5894 O.3      703 DG      0.0000
     75 C2'        3.9325    -6.5386  2299.0831 C.3      703 DG      0.0000
     76 C1'        3.7321    -5.4834  2298.0016 C.3      703 DG      0.0000
     77 N9         2.4555    -4.7806  2298.1711 N.ar     703 DG      0.0000
     78 C8         1.2337    -5.2949  2298.5073 C.ar     703 DG      0.0000
     79 N7         0.2693    -4.4053  2298.5930 N.ar     703 DG      0.0000
     80 C5         0.9129    -3.2148  2298.2630 C.ar     703 DG      0.0000
     81 C6         0.4170    -1.8830  2298.1687 C.2      703 DG      0.0000
     82 O6        -0.7401    -1.4810  2298.3610 O.2      703 DG      0.0000
     83 N1         1.3666    -0.9451  2297.8336 N.am     703 DG      0.0000
     84 C2         2.6663    -1.2836  2297.6099 C.2      703 DG      0.0000
     85 N2         3.4493    -0.2417  2297.3010 N.pl3    703 DG      0.0000
     86 N3         3.1764    -2.5111  2297.6809 N.2      703 DG      0.0000
     87 C4         2.2504    -3.4289  2298.0075 C.ar     703 DG      0.0000
     88 H5'        4.7892    -9.3430  2296.1020 H        703 DG      0.0000
     89 H5''       3.3542    -8.4394  2295.5501 H        703 DG      0.0000
     90 H4'        5.5380    -7.2356  2296.3919 H        703 DG      0.0000
     91 H3'        4.7805    -8.4802  2298.7853 H        703 DG      0.0000
     92 H2'        3.0018    -7.0602  2299.3061 H        703 DG      0.0000
     93 H2''       4.3489    -6.0909  2299.9855 H        703 DG      0.0000
     94 H1'        4.5444    -4.7590  2298.0605 H        703 DG      0.0000
     95 H8         1.0737    -6.3477  2298.6879 H        703 DG      0.0000
     96 H1         1.0913     0.0232  2297.7513 H        703 DG      0.0000
     97 H21        3.0569     0.6876  2297.2508 H        703 DG      0.0000
     98 H22        4.4323    -0.3853  2297.1184 H        703 DG      0.0000
     99 P          7.0477    -7.1952  2299.9778 P.3      704 DA      0.0000
    100 OP1        7.6756    -8.5039  2300.3332 O.co2    704 DA      0.0000
    101 OP2        5.7660    -7.0256  2300.8735 O.co2    704 DA      0.0000
    102 O5'        7.8668    -5.8603  2300.2269 O.3      704 DA      0.0000
    103 C5'        8.3352    -4.9764  2299.1979 C.3      704 DA      0.0000
    104 C4'        7.9688    -3.5794  2299.6722 C.3      704 DA      0.0000
    105 O4'        6.5744    -3.3794  2299.5818 O.3      704 DA      0.0000
    106 C3'        8.3772    -3.2213  2301.1012 C.3      704 DA      0.0000
    107 O3'        9.0133    -1.9276  2301.1535 O.3      704 DA      0.0000
    108 C2'        7.0319    -3.2575  2301.8367 C.3      704 DA      0.0000
    109 C1'        6.1502    -2.6449  2300.7591 C.3      704 DA      0.0000
    110 N9         4.7150    -2.8408  2300.9875 N.ar     704 DA      0.0000
    111 C8         4.0091    -3.9903  2301.2033 C.ar     704 DA      0.0000
    112 N7         2.7190    -3.8001  2301.3682 N.ar     704 DA      0.0000
    113 C5         2.5643    -2.4291  2301.2280 C.ar     704 DA      0.0000
    114 C6         1.4172    -1.6071  2301.2760 C.ar     704 DA      0.0000
    115 N6         0.1779    -2.0526  2301.4958 N.pl3    704 DA      0.0000
    116 N1         1.6475    -0.2739  2301.0862 N.ar     704 DA      0.0000
    117 C2         2.8964     0.1992  2300.8684 C.ar     704 DA      0.0000
    118 N3         4.0207    -0.5136  2300.8102 N.ar     704 DA      0.0000
    119 C4         3.7751    -1.8232  2300.9970 C.ar     704 DA      0.0000
    120 H5'        7.8438    -5.1989  2298.2507 H        704 DA      0.0000
    121 H5''       9.4162    -5.0649  2299.0901 H        704 DA      0.0000
    122 H4'        8.4493    -2.8661  2299.0024 H        704 DA      0.0000
    123 H3'        9.0446    -3.9839  2301.5027 H        704 DA      0.0000
    124 H2'        6.7285    -4.2753  2302.0822 H        704 DA      0.0000
    125 H2''       7.0553    -2.6300  2302.7276 H        704 DA      0.0000
    126 H1'        6.3739    -1.5843  2300.6446 H        704 DA      0.0000
    127 H8         4.4693    -4.9667  2301.2354 H        704 DA      0.0000
    128 H2         2.9919     1.2657  2300.7271 H        704 DA      0.0000
    129 H61       -0.1176    -3.0135  2301.3984 H        704 DA      0.0000
    130 H62       -0.5945    -1.4247  2301.3243 H        704 DA      0.0000
    131 P         10.1301    -1.5428  2302.2950 P.3      705 DA      0.0000
    132 OP1       11.4451    -1.2247  2301.6279 O.co2    705 DA      0.0000
    133 OP2       10.1205    -2.7641  2303.1259 O.co2    705 DA      0.0000
    134 O5'        9.6076    -0.1321  2302.8258 O.3      705 DA      0.0000
    135 C5'        9.4880     1.0261  2302.0015 C.3      705 DA      0.0000
    136 C4'        8.3312     1.8598  2302.5238 C.3      705 DA      0.0000
    137 O4'        7.1438     1.1192  2302.5520 O.3      705 DA      0.0000
    138 C3'        8.4919     2.5014  2303.8911 C.3      705 DA      0.0000
    139 O3'        8.4799     3.9266  2303.8133 O.3      705 DA      0.0000
    140 C2'        7.3586     1.8841  2304.7198 C.3      705 DA      0.0000
    141 C1'        6.3431     1.4724  2303.7260 C.3      705 DA      0.0000
    142 N9         5.4601     0.3227  2303.9941 N.ar     705 DA      0.0000
    143 C8         5.7594    -1.0131  2304.1093 C.ar     705 DA      0.0000
    144 N7         4.7122    -1.7852  2304.2786 N.ar     705 DA      0.0000
    145 C5         3.6389    -0.9009  2304.2416 C.ar     705 DA      0.0000
    146 C6         2.2352    -1.1086  2304.3620 C.ar     705 DA      0.0000
    147 N6         1.6437    -2.2811  2304.5537 N.pl3    705 DA      0.0000
    148 N1         1.4585     0.0187  2304.2638 N.ar     705 DA      0.0000
    149 C2         2.0313     1.2429  2304.0748 C.ar     705 DA      0.0000
    150 N3         3.3286     1.5062  2303.9669 N.ar     705 DA      0.0000
    151 C4         4.0786     0.3897  2304.0588 C.ar     705 DA      0.0000
    152 H5'        9.2927     0.7277  2300.9714 H        705 DA      0.0000
    153 H5''      10.4094     1.6066  2302.0474 H        705 DA      0.0000
    154 H4'        8.1799     2.6705  2301.8111 H        705 DA      0.0000
    155 H3'        9.4449     2.1841  2304.3143 H        705 DA      0.0000
    156 H2'        7.7190     1.0214  2305.2801 H        705 DA      0.0000
    157 H2''       6.9411     2.6271  2305.3994 H        705 DA      0.0000
    158 H1'        5.7256     2.3363  2303.4800 H        705 DA      0.0000
    159 H8         6.7688    -1.3945  2304.0644 H        705 DA      0.0000
    160 H2         1.3593     2.0856  2304.0056 H        705 DA      0.0000
    161 H61        2.1489    -3.0927  2304.8798 H        705 DA      0.0000
    162 H62        0.6547    -2.3648  2304.3669 H        705 DA      0.0000
    163 P          9.3273     4.9326  2304.7695 P.3      706 DT      0.0000
    164 OP1        9.9400     6.0784  2303.9722 O.co2    706 DT      0.0000
    165 OP2       10.2623     4.1918  2305.5901 O.co2    706 DT      0.0000
    166 O5'        8.1243     5.7046  2305.5832 O.3      706 DT      0.0000
    167 C5'        7.0082     5.9972  2304.6381 C.3      706 DT      0.0000
    168 C4'        5.7611     5.6856  2305.4258 C.3      706 DT      0.0000
    169 O4'        5.5424     4.3060  2305.6178 O.3      706 DT      0.0000
    170 C3'        5.8017     6.2880  2306.8424 C.3      706 DT      0.0000
    171 O3'        5.0841     7.5083  2306.8441 O.3      706 DT      0.0000
    172 C2'        5.2186     5.1992  2307.7397 C.3      706 DT      0.0000
    173 C1'        4.5982     4.2693  2306.7750 C.3      706 DT      0.0000
    174 N1         4.4100     2.8678  2307.1148 N.am     706 DT      0.0000
    175 C2         3.0981     2.4253  2307.2527 C.2      706 DT      0.0000
    176 O2         2.1740     3.2235  2307.1647 O.2      706 DT      0.0000
    177 N3         2.8875     1.1037  2307.5067 N.am     706 DT      0.0000
    178 C4         3.9078     0.2039  2307.6269 C.2      706 DT      0.0000
    179 O4         3.6299    -1.0112  2307.8821 O.2      706 DT      0.0000
    180 C5         5.2498     0.6786  2307.4553 C.2      706 DT      0.0000
    181 C7         6.4088    -0.2753  2307.5428 C.3      706 DT      0.0000
    182 C6         5.4518     1.9827  2307.1995 C.2      706 DT      0.0000
    183 H5'        7.0225     7.0446  2304.3365 H        706 DT      0.0000
    184 H5''       7.0743     5.3507  2303.7631 H        706 DT      0.0000
    185 H4'        4.9039     6.1021  2304.8967 H        706 DT      0.0000
    186 H3'        6.8371     6.4760  2307.1267 H        706 DT      0.0000
    187 H2'        6.0018     4.7034  2308.3131 H        706 DT      0.0000
    188 H2''       4.4641     5.6173  2308.4061 H        706 DT      0.0000
    189 H1'        3.6410     4.6829  2306.4577 H        706 DT      0.0000
    190 H3         1.9379     0.7757  2307.6104 H        706 DT      0.0000
    191 H6         6.4605     2.3414  2307.0574 H        706 DT      0.0000
    192 H71        6.0392    -1.2783  2307.7559 H        706 DT      0.0000
    193 H72        6.9471    -0.2804  2306.5950 H        706 DT      0.0000
    194 H73        7.0806     0.0415  2308.3406 H        706 DT      0.0000
    195 P          5.0041     8.5939  2307.9507 P.3      707 DT      0.0000
    196 OP1        4.6009     9.9604  2307.3386 O.co2    707 DT      0.0000
    197 OP2        6.3485     8.6468  2308.5807 O.co2    707 DT      0.0000
    198 O5'        3.7322     8.1749  2308.8330 O.3      707 DT      0.0000
    199 C5'        2.4793     8.3603  2308.1213 C.3      707 DT      0.0000
    200 C4'        1.4226     7.5577  2308.7974 C.3      707 DT      0.0000
    201 O4'        1.6628     6.1561  2308.7741 O.3      707 DT      0.0000
    202 C3'        1.1768     7.9401  2310.2640 C.3      707 DT      0.0000
    203 O3'       -0.2122     7.9967  2310.5281 O.3      707 DT      0.0000
    204 C2'        1.8008     6.7308  2311.0004 C.3      707 DT      0.0000
    205 C1'        1.2540     5.6444  2310.0968 C.3      707 DT      0.0000
    206 N1         1.8634     4.3614  2310.3945 N.am     707 DT      0.0000
    207 C2         1.0508     3.2406  2310.4493 C.2      707 DT      0.0000
    208 O2        -0.1595     3.3720  2310.2609 O.2      707 DT      0.0000
    209 N3         1.6324     2.0330  2310.7152 N.am     707 DT      0.0000
    210 C4         2.9713     1.9025  2310.9223 C.2      707 DT      0.0000
    211 O4         3.4409     0.7500  2311.1456 O.2      707 DT      0.0000
    212 C5         3.7982     3.0617  2310.8572 C.2      707 DT      0.0000
    213 C7         5.2831     2.9985  2311.0671 C.3      707 DT      0.0000
    214 C6         3.2105     4.2396  2310.5961 C.2      707 DT      0.0000
    215 H5'        2.2031     9.4147  2308.1337 H        707 DT      0.0000
    216 H5''       2.5909     8.0237  2307.0905 H        707 DT      0.0000
    217 H4'        0.4913     7.7334  2308.2589 H        707 DT      0.0000
    218 H3'        1.6755     8.8731  2310.5265 H        707 DT      0.0000
    219 H2'        2.8903     6.7617  2310.9991 H        707 DT      0.0000
    220 H2''       1.4084     6.6383  2312.0131 H        707 DT      0.0000
    221 H1'        0.1682     5.5859  2310.1724 H        707 DT      0.0000
    222 H3         1.0491     1.2097  2310.7597 H        707 DT      0.0000
    223 H6         3.8253     5.1259  2310.5430 H        707 DT      0.0000
    224 H71        5.5789     1.9684  2311.2660 H        707 DT      0.0000
    225 H72        5.7918     3.3559  2310.1718 H        707 DT      0.0000
    226 H73        5.5571     3.6255  2311.9155 H        707 DT      0.0000
    227 P         -1.2098     9.0446  2311.1360 P.3      708 DC      0.0000
    228 OP1       -2.1092     9.6369  2310.0681 O.co2    708 DC      0.0000
    229 OP2       -0.3665    10.0050  2311.8710 O.co2    708 DC      0.0000
    230 O5'       -2.1190     7.9717  2311.9621 O.3      708 DC      0.0000
    231 C5'       -2.4909     6.9757  2310.9398 C.3      708 DC      0.0000
    232 C4'       -3.2776     5.9022  2311.6363 C.3      708 DC      0.0000
    233 O4'       -2.5218     4.7572  2311.8832 O.3      708 DC      0.0000
    234 C3'       -3.9619     6.3359  2312.9278 C.3      708 DC      0.0000
    235 O3'       -5.3611     6.0983  2312.8481 O.3      708 DC      0.0000
    236 C2'       -3.1552     5.5672  2313.9765 C.3      708 DC      0.0000
    237 C1'       -2.6991     4.3466  2313.2801 C.3      708 DC      0.0000
    238 N1        -1.3604     3.8491  2313.6122 N.am     708 DC      0.0000
    239 C2        -1.2652     2.4829  2313.8680 C.2      708 DC      0.0000
    240 O2        -2.2653     1.7586  2313.8725 O.2      708 DC      0.0000
    241 N3        -0.0189     1.9760  2314.1419 N.2      708 DC      0.0000
    242 C4         1.0905     2.7693  2314.1319 C.2      708 DC      0.0000
    243 N4         2.2513     2.1856  2314.4088 N.pl3    708 DC      0.0000
    244 C5         0.9809     4.1496  2313.8539 C.2      708 DC      0.0000
    245 C6        -0.2504     4.6327  2313.5891 C.2      708 DC      0.0000
    246 H5'       -3.0999     7.4434  2310.1661 H        708 DC      0.0000
    247 H5''      -1.5924     6.5475  2310.4956 H        708 DC      0.0000
    248 H4'       -4.0714     5.6065  2310.9503 H        708 DC      0.0000
    249 H3'       -3.7954     7.4035  2313.0710 H        708 DC      0.0000
    250 H2'       -2.3035     6.1575  2314.3144 H        708 DC      0.0000
    251 H2''      -3.7905     5.3036  2314.8221 H        708 DC      0.0000
    252 H1'       -3.4408     3.5521  2313.3611 H        708 DC      0.0000
    253 H5         1.8484     4.7929  2313.8533 H        708 DC      0.0000
    254 H6        -0.3580     5.6804  2313.3501 H        708 DC      0.0000
    255 H41        2.2841     1.1960  2314.6080 H        708 DC      0.0000
    256 H42        3.1010     2.7315  2314.4201 H        708 DC      0.0000
    257 P         -6.5025     6.7497  2313.8001 P.3      709 DA      0.0000
    258 OP1       -7.7948     6.7496  2313.0064 O.co2    709 DA      0.0000
    259 OP2       -6.0741     8.1204  2314.1457 O.co2    709 DA      0.0000
    260 O5'       -6.5617     5.7385  2315.0971 O.3      709 DA      0.0000
    261 C5'       -6.7427     4.3197  2314.8019 C.3      709 DA      0.0000
    262 C4'       -6.6775     3.5130  2316.0572 C.3      709 DA      0.0000
    263 O4'       -5.4240     2.8671  2316.2993 O.3      709 DA      0.0000
    264 C3'       -6.8962     4.2962  2317.3624 C.3      709 DA      0.0000
    265 O3'       -7.2574     3.3732  2318.3923 O.3      709 DA      0.0000
    266 C2'       -5.4650     4.8278  2317.5770 C.3      709 DA      0.0000
    267 C1'       -4.7507     3.4845  2317.3937 C.3      709 DA      0.0000
    268 N9        -3.3187     3.7129  2317.2994 N.ar     709 DA      0.0000
    269 C8        -2.6080     4.8754  2317.1836 C.ar     709 DA      0.0000
    270 N7        -1.2955     4.7274  2317.1650 N.ar     709 DA      0.0000
    271 C5        -1.1307     3.3537  2317.2725 C.ar     709 DA      0.0000
    272 C6         0.0260     2.5364  2317.3071 C.ar     709 DA      0.0000
    273 N6         1.2646     2.9873  2317.2218 N.pl3    709 DA      0.0000
    274 N1        -0.1896     1.1945  2317.4396 N.ar     709 DA      0.0000
    275 C2        -1.4577     0.6834  2317.5198 C.ar     709 DA      0.0000
    276 N3        -2.5888     1.3840  2317.4900 N.ar     709 DA      0.0000
    277 C4        -2.3558     2.7138  2317.3670 C.ar     709 DA      0.0000
    278 H5'       -7.7144     4.1723  2314.3308 H        709 DA      0.0000
    279 H5''      -5.9581     3.9902  2314.1206 H        709 DA      0.0000
    280 H4'       -7.4449     2.7412  2315.9983 H        709 DA      0.0000
    281 H3'       -7.6252     5.0986  2317.2488 H        709 DA      0.0000
    282 H2'       -5.1742     5.5625  2316.8262 H        709 DA      0.0000
    283 H2''      -5.3312     5.2156  2318.5869 H        709 DA      0.0000
    284 H1'       -4.9358     2.8826  2318.2834 H        709 DA      0.0000
    285 H8        -3.0841     5.8422  2317.1126 H        709 DA      0.0000
    286 H2        -1.5481    -0.3885  2317.6163 H        709 DA      0.0000
    287 H61        2.1736     2.5854  2317.4018 H        709 DA      0.0000
    288 H62        1.3135     3.9457  2316.9071 H        709 DA      0.0000
    289 P         -8.7537     2.8239  2318.5328 P.3      710 DC      0.0000
    290 OP1       -9.5572     2.9828  2317.2877 O.co2    710 DC      0.0000
    291 OP2       -9.2852     3.6397  2319.6757 O.co2    710 DC      0.0000
    292 O5'       -8.5490     1.2771  2318.8160 O.3      710 DC      0.0000
    293 C5'       -8.3106     0.3333  2317.7283 C.3      710 DC      0.0000
    294 C4'       -7.4787    -0.7441  2318.4332 C.3      710 DC      0.0000
    295 O4'       -6.2293    -0.1729  2318.7452 O.3      710 DC      0.0000
    296 C3'       -8.0898    -1.2348  2319.7431 C.3      710 DC      0.0000
    297 O3'       -8.1935    -2.6750  2319.8110 O.3      710 DC      0.0000
    298 C2'       -7.1761    -0.6398  2320.8253 C.3      710 DC      0.0000
    299 C1'       -5.8661    -0.5960  2320.1492 C.3      710 DC      0.0000
    300 N1        -4.8588     0.4011  2320.5020 N.am     710 DC      0.0000
    301 C2        -3.5415    -0.0529  2320.4751 C.2      710 DC      0.0000
    302 O2        -3.2495    -1.2240  2320.2682 O.2      710 DC      0.0000
    303 N3        -2.5620     0.8563  2320.7282 N.2      710 DC      0.0000
    304 C4        -2.8262     2.1646  2320.9616 C.2      710 DC      0.0000
    305 N4        -1.7823     2.9585  2321.1925 N.pl3    710 DC      0.0000
    306 C5        -4.1739     2.6184  2320.9681 C.2      710 DC      0.0000
    307 C6        -5.1350     1.7156  2320.7187 C.2      710 DC      0.0000
    308 H5'       -9.2454    -0.0744  2317.3434 H        710 DC      0.0000
    309 H5''      -7.7366     0.8025  2316.9292 H        710 DC      0.0000
    310 H4'       -7.3340    -1.5894  2317.7605 H        710 DC      0.0000
    311 H3'       -9.0860    -0.8052  2319.8490 H        710 DC      0.0000
    312 H2'       -7.5047     0.3591  2321.1123 H        710 DC      0.0000
    313 H2''      -7.1364    -1.2949  2321.6956 H        710 DC      0.0000
    314 H1'       -5.4192    -1.5901  2320.1359 H        710 DC      0.0000
    315 H5        -4.4151     3.6522  2321.1666 H        710 DC      0.0000
    316 H6        -6.1634     2.0439  2320.6890 H        710 DC      0.0000
    317 H41       -0.8466     2.5785  2321.1815 H        710 DC      0.0000
    318 H42       -1.9263     3.9408  2321.3786 H        710 DC      0.0000
    319 P          8.3860     1.3122  2322.7705 P.3      710 DG      0.0000
    320 OP1        9.8412     1.6077  2322.9493 O.co2    710 DG      0.0000
    321 OP2        7.7342     2.1595  2321.6857 O.co2    710 DG      0.0000
    322 O5'        8.1794    -0.3075  2322.5633 O.3      710 DG      0.0000
    323 C5'        7.6147    -1.1014  2323.6591 C.3      710 DG      0.0000
    324 C4'        6.7002    -2.1468  2323.0248 C.3      710 DG      0.0000
    325 O4'        5.3761    -1.6973  2322.9290 O.3      710 DG      0.0000
    326 C3'        7.1106    -2.5753  2321.6184 C.3      710 DG      0.0000
    327 O3'        6.9432    -3.9869  2321.3515 O.3      710 DG      0.0000
    328 C2'        6.2037    -1.7192  2320.7162 C.3      710 DG      0.0000
    329 C1'        4.9270    -1.6925  2321.5400 C.3      710 DG      0.0000
    330 N9         4.1449    -0.4747  2321.2667 N.ar     710 DG      0.0000
    331 C8         4.6083     0.8099  2321.1100 C.ar     710 DG      0.0000
    332 N7         3.6682     1.6906  2320.8916 N.ar     710 DG      0.0000
    333 C5         2.4999     0.9382  2320.9164 C.ar     710 DG      0.0000
    334 C6         1.1391     1.3140  2320.7599 C.2      710 DG      0.0000
    335 O6         0.7052     2.4580  2320.5631 O.2      710 DG      0.0000
    336 N1         0.2510     0.2704  2320.8469 N.am     710 DG      0.0000
    337 C2         0.6434    -1.0083  2321.0675 C.2      710 DG      0.0000
    338 N2        -0.3295    -1.9133  2321.1309 N.pl3    710 DG      0.0000
    339 N3         1.9090    -1.4150  2321.2253 N.2      710 DG      0.0000
    340 C4         2.7798    -0.3905  2321.1420 C.ar     710 DG      0.0000
    341 H5'        8.4130    -1.5911  2324.2168 H        710 DG      0.0000
    342 H5''       7.0380    -0.4585  2324.3240 H        710 DG      0.0000
    343 H4'        6.7092    -3.0314  2323.6615 H        710 DG      0.0000
    344 H3'        8.1511    -2.2985  2321.4480 H        710 DG      0.0000
    345 H2'        6.6100    -0.7179  2320.5735 H        710 DG      0.0000
    346 H2''       6.0363    -2.2099  2319.7574 H        710 DG      0.0000
    347 H1'        4.3274    -2.5794  2321.3347 H        710 DG      0.0000
    348 H8         5.6557     1.0681  2321.1628 H        710 DG      0.0000
    349 H1        -0.7348     0.4632  2320.7421 H        710 DG      0.0000
    350 H21       -1.2918    -1.6291  2321.0158 H        710 DG      0.0000
    351 H22       -0.1058    -2.8846  2321.2940 H        710 DG      0.0000
    352 P          6.6292    -4.3721  2319.8280 P.3      709 DT      0.0000
    353 OP1        7.1114    -5.7431  2319.4371 O.co2    709 DT      0.0000
    354 OP2        7.3961    -3.3127  2319.1274 O.co2    709 DT      0.0000
    355 O5'        5.0343    -4.2922  2319.6971 O.3      709 DT      0.0000
    356 C5'        4.2884    -5.5226  2319.9647 C.3      709 DT      0.0000
    357 C4'        2.9796    -5.4628  2319.2077 C.3      709 DT      0.0000
    358 O4'        2.4166    -4.1633  2319.1804 O.3      709 DT      0.0000
    359 C3'        3.1123    -5.8861  2317.7530 C.3      709 DT      0.0000
    360 O3'        1.9910    -6.6497  2317.2579 O.3      709 DT      0.0000
    361 C2'        3.2578    -4.5654  2317.0301 C.3      709 DT      0.0000
    362 C1'        2.2431    -3.7441  2317.8082 C.3      709 DT      0.0000
    363 N1         2.6341    -2.3338  2317.6569 N.am     709 DT      0.0000
    364 C2         1.6108    -1.3975  2317.7637 C.2      709 DT      0.0000
    365 O2         0.4544    -1.7593  2317.9534 O.2      709 DT      0.0000
    366 N3         1.9551    -0.0801  2317.6435 N.am     709 DT      0.0000
    367 C4         3.2420     0.3117  2317.4259 C.2      709 DT      0.0000
    368 O4         3.4660     1.5635  2317.3284 O.2      709 DT      0.0000
    369 C5         4.2682    -0.6701  2317.3196 C.2      709 DT      0.0000
    370 C7         5.6915    -0.2492  2317.0906 C.3      709 DT      0.0000
    371 C6         3.9261    -1.9553  2317.4413 C.2      709 DT      0.0000
    372 H5'        4.8674    -6.3838  2319.6310 H        709 DT      0.0000
    373 H5''       4.0903    -5.6061  2321.0333 H        709 DT      0.0000
    374 H4'        2.2712    -6.1323  2319.6956 H        709 DT      0.0000
    375 H3'        4.0263    -6.4670  2317.6290 H        709 DT      0.0000
    376 H2'        4.2655    -4.1602  2317.1217 H        709 DT      0.0000
    377 H2''       2.9667    -4.6578  2315.9837 H        709 DT      0.0000
    378 H1'        1.2263    -3.9211  2317.4576 H        709 DT      0.0000
    379 H3         1.2345     0.6236  2317.7182 H        709 DT      0.0000
    380 H6         4.6917    -2.7134  2317.3672 H        709 DT      0.0000
    381 H71        5.7430     0.8374  2317.0219 H        709 DT      0.0000
    382 H72        6.3091    -0.5902  2317.9215 H        709 DT      0.0000
    383 H73        6.0559    -0.6896  2316.1625 H        709 DT      0.0000
    384 P          2.6104    -7.9783  2316.4795 P.3      708 DG      0.0000
    385 OP1        2.7002    -9.1887  2317.3507 O.co2    708 DG      0.0000
    386 OP2        3.9178    -7.4047  2316.0739 O.co2    708 DG      0.0000
    387 O5'        1.4631    -8.2432  2315.3986 O.3      708 DG      0.0000
    388 C5'        0.2417    -8.9003  2315.8221 C.3      708 DG      0.0000
    389 C4'       -0.8773    -7.9683  2315.3744 C.3      708 DG      0.0000
    390 O4'       -0.5165    -6.6286  2315.6451 O.3      708 DG      0.0000
    391 C3'       -1.2167    -8.0600  2313.8867 C.3      708 DG      0.0000
    392 O3'       -2.5860    -8.3561  2313.6781 O.3      708 DG      0.0000
    393 C2'       -0.7381    -6.7395  2313.3099 C.3      708 DG      0.0000
    394 C1'       -0.8206    -5.8079  2314.4961 C.3      708 DG      0.0000
    395 N9         0.1486    -4.7158  2314.3725 N.ar     708 DG      0.0000
    396 C8         1.5030    -4.7976  2314.2136 C.ar     708 DG      0.0000
    397 N7         2.0965    -3.6316  2314.1356 N.ar     708 DG      0.0000
    398 C5         1.0589    -2.7141  2314.2731 C.ar     708 DG      0.0000
    399 C6         1.0451    -1.2944  2314.2826 C.2      708 DG      0.0000
    400 O6         2.0102    -0.5436  2314.1835 O.2      708 DG      0.0000
    401 N1        -0.1940    -0.7391  2314.4316 N.am     708 DG      0.0000
    402 C2        -1.3265    -1.5056  2314.5644 C.2      708 DG      0.0000
    403 N2        -2.4709    -0.8351  2314.7001 N.pl3    708 DG      0.0000
    404 N3        -1.3830    -2.8413  2314.5687 N.2      708 DG      0.0000
    405 C4        -0.1478    -3.3773  2314.4180 C.ar     708 DG      0.0000
    406 H5'        0.1442    -9.8747  2315.3434 H        708 DG      0.0000
    407 H5''       0.2293    -9.0103  2316.9065 H        708 DG      0.0000
    408 H4'       -1.7735    -8.2061  2315.9474 H        708 DG      0.0000
    409 H3'       -0.6220    -8.8612  2313.4481 H        708 DG      0.0000
    410 H2'        0.2854    -6.8190  2312.9436 H        708 DG      0.0000
    411 H2''      -1.4043    -6.4056  2312.5144 H        708 DG      0.0000
    412 H1'       -1.8290    -5.4035  2314.5831 H        708 DG      0.0000
    413 H8         2.0351    -5.7358  2314.1576 H        708 DG      0.0000
    414 H1        -0.2805     0.2671  2314.4444 H        708 DG      0.0000
    415 H21       -2.4675     0.1749  2314.7011 H        708 DG      0.0000
    416 H22       -3.3413    -1.3371  2314.8019 H        708 DG      0.0000
    417 P         -3.7476    -7.7259  2312.8118 P.3      707 DA      0.0000
    418 OP1       -5.0672    -7.7601  2313.5932 O.co2    707 DA      0.0000
    419 OP2       -3.8373    -8.5713  2311.6191 O.co2    707 DA      0.0000
    420 O5'       -3.3802    -6.1484  2312.6370 O.3      707 DA      0.0000
    421 C5'       -3.8383    -5.3520  2313.7935 C.3      707 DA      0.0000
    422 C4'       -4.8587    -4.3741  2313.2657 C.3      707 DA      0.0000
    423 O4'       -4.3152    -3.0976  2313.0434 O.3      707 DA      0.0000
    424 C3'       -5.4554    -4.8011  2311.9252 C.3      707 DA      0.0000
    425 O3'       -6.8408    -4.5638  2311.8500 O.3      707 DA      0.0000
    426 C2'       -4.5615    -4.0852  2310.9286 C.3      707 DA      0.0000
    427 C1'       -3.9767    -2.9047  2311.6525 C.3      707 DA      0.0000
    428 N9        -2.5255    -2.7928  2311.4270 N.ar     707 DA      0.0000
    429 C8        -1.5981    -3.7951  2311.2406 C.ar     707 DA      0.0000
    430 N7        -0.3717    -3.3685  2311.0447 N.ar     707 DA      0.0000
    431 C5        -0.4977    -1.9877  2311.1316 C.ar     707 DA      0.0000
    432 C6         0.4601    -0.9522  2311.0259 C.ar     707 DA      0.0000
    433 N6         1.7476    -1.1601  2310.8135 N.pl3    707 DA      0.0000
    434 N1        -0.0152     0.3178  2311.1496 N.ar     707 DA      0.0000
    435 C2        -1.3401     0.5624  2311.3742 C.ar     707 DA      0.0000
    436 N3        -2.2894    -0.3639  2311.4901 N.ar     707 DA      0.0000
    437 C4        -1.8049    -1.6220  2311.3539 C.ar     707 DA      0.0000
    438 H5'       -4.2922    -6.0020  2314.5416 H        707 DA      0.0000
    439 H5''      -2.9977    -4.8128  2314.2302 H        707 DA      0.0000
    440 H4'       -5.6655    -4.2867  2313.9934 H        707 DA      0.0000
    441 H3'       -5.2923    -5.8729  2311.8121 H        707 DA      0.0000
    442 H2'       -5.1457    -3.7500  2310.0718 H        707 DA      0.0000
    443 H2''      -3.7645    -4.7513  2310.5981 H        707 DA      0.0000
    444 H1'       -4.4606    -1.9961  2311.2943 H        707 DA      0.0000
    445 H8        -1.8581    -4.8433  2311.2545 H        707 DA      0.0000
    446 H2        -1.6434     1.5949  2311.4654 H        707 DA      0.0000
    447 H61        2.4427    -0.4987  2311.1289 H        707 DA      0.0000
    448 H62        2.0417    -1.9951  2310.3272 H        707 DA      0.0000
    449 P         -7.7510    -4.0490  2310.6654 P.3      706 DA      0.0000
    450 OP1       -9.1764    -3.7011  2311.1853 O.co2    706 DA      0.0000
    451 OP2       -7.8451    -5.2143  2309.7317 O.co2    706 DA      0.0000
    452 O5'       -7.1427    -2.6855  2310.1627 O.3      706 DA      0.0000
    453 C5'       -7.7009    -1.4357  2310.6186 C.3      706 DA      0.0000
    454 C4'       -6.9419    -0.3308  2309.9166 C.3      706 DA      0.0000
    455 O4'       -5.5675    -0.5634  2309.7959 O.3      706 DA      0.0000
    456 C3'       -7.4584    -0.0358  2308.5091 C.3      706 DA      0.0000
    457 O3'       -8.0373     1.2824  2308.4777 O.3      706 DA      0.0000
    458 C2'       -6.2549    -0.3232  2307.6095 C.3      706 DA      0.0000
    459 C1'       -5.0846    -0.0580  2308.5073 C.3      706 DA      0.0000
    460 N9        -3.8561    -0.7862  2308.2077 N.ar     706 DA      0.0000
    461 C8        -3.6684    -2.1390  2308.0130 C.ar     706 DA      0.0000
    462 N7        -2.4147    -2.4762  2307.8075 N.ar     706 DA      0.0000
    463 C5        -1.7267    -1.2808  2307.8821 C.ar     706 DA      0.0000
    464 C6        -0.3544    -0.9723  2307.7486 C.ar     706 DA      0.0000
    465 N6         0.5880    -1.8780  2307.5054 N.pl3    706 DA      0.0000
    466 N1        -0.0367     0.3540  2307.8974 N.ar     706 DA      0.0000
    467 C2        -0.9688     1.2930  2308.1500 C.ar     706 DA      0.0000
    468 N3        -2.2802     1.0760  2308.2888 N.ar     706 DA      0.0000
    469 C4        -2.5900    -0.2314  2308.1416 C.ar     706 DA      0.0000
    470 H5'       -8.7593    -1.3833  2310.3634 H        706 DA      0.0000
    471 H5''      -7.5746    -1.3448  2311.6974 H        706 DA      0.0000
    472 H4'       -7.0680     0.5769  2310.5068 H        706 DA      0.0000
    473 H3'       -8.2404    -0.7578  2308.2741 H        706 DA      0.0000
    474 H2'       -6.2597    -1.3588  2307.2697 H        706 DA      0.0000
    475 H2''      -6.2442     0.3574  2306.7582 H        706 DA      0.0000
    476 H1'       -4.8869     1.0123  2308.5684 H        706 DA      0.0000
    477 H8        -4.4769    -2.8549  2308.0280 H        706 DA      0.0000
    478 H2        -0.6257     2.3122  2308.2490 H        706 DA      0.0000
    479 H61        1.5196    -1.6212  2307.7994 H        706 DA      0.0000
    480 H62        0.3866    -2.7609  2307.0581 H        706 DA      0.0000
    481 P         -8.6446     1.8347  2307.0927 P.3      705 DT      0.0000
    482 OP1       -9.5134     3.0534  2307.1508 O.co2    705 DT      0.0000
    483 OP2       -9.3094     0.5977  2306.5801 O.co2    705 DT      0.0000
    484 O5'       -7.2121     2.3155  2306.3896 O.3      705 DT      0.0000
    485 C5'       -6.3837     2.9634  2307.4019 C.3      705 DT      0.0000
    486 C4'       -5.3931     3.8512  2306.7189 C.3      705 DT      0.0000
    487 O4'       -4.1424     3.2571  2306.5385 O.3      705 DT      0.0000
    488 C3'       -5.8453     4.3568  2305.3577 C.3      705 DT      0.0000
    489 O3'       -5.4313     5.7023  2305.0904 O.3      705 DT      0.0000
    490 C2'       -5.2036     3.2871  2304.4643 C.3      705 DT      0.0000
    491 C1'       -3.8408     3.1306  2305.1043 C.3      705 DT      0.0000
    492 N1        -3.2936     1.7803  2304.8744 N.am     705 DT      0.0000
    493 C2        -1.9205     1.6593  2304.7528 C.2      705 DT      0.0000
    494 O2        -1.1881     2.6493  2304.7895 O.2      705 DT      0.0000
    495 N3        -1.3988     0.4053  2304.5853 N.am     705 DT      0.0000
    496 C4        -2.1878    -0.7014  2304.5368 C.2      705 DT      0.0000
    497 O4        -1.6213    -1.8197  2304.3513 O.2      705 DT      0.0000
    498 C5        -3.5957    -0.5572  2304.6852 C.2      705 DT      0.0000
    499 C7        -4.5029    -1.7635  2304.6331 C.3      705 DT      0.0000
    500 C6        -4.0891     0.6734  2304.8582 C.2      705 DT      0.0000
    501 H5'       -7.0130     3.5582  2308.0640 H        705 DT      0.0000
    502 H5''      -5.8565     2.2060  2307.9819 H        705 DT      0.0000
    503 H4'       -5.2479     4.7237  2307.3560 H        705 DT      0.0000
    504 H3'       -6.9307     4.2884  2305.2857 H        705 DT      0.0000
    505 H2'       -5.7664     2.3541  2304.4949 H        705 DT      0.0000
    506 H2''      -5.1092     3.6467  2303.4397 H        705 DT      0.0000
    507 H1'       -3.1501     3.9050  2304.7704 H        705 DT      0.0000
    508 H3        -0.3984     0.2985  2304.4952 H        705 DT      0.0000
    509 H6        -5.1542     0.7947  2304.9896 H        705 DT      0.0000
    510 H71       -4.9111    -1.8686  2303.6279 H        705 DT      0.0000
    511 H72       -5.3186    -1.6353  2305.3447 H        705 DT      0.0000
    512 H73       -3.9341    -2.6572  2304.8896 H        705 DT      0.0000
    513 P         -5.7936     6.2709  2303.6005 P.3      704 DT      0.0000
    514 OP1       -6.8132     7.4018  2303.7484 O.co2    704 DT      0.0000
    515 OP2       -6.4397     5.0922  2302.9306 O.co2    704 DT      0.0000
    516 O5'       -4.4728     6.7537  2302.9484 O.3      704 DT      0.0000
    517 C5'       -3.3708     7.2628  2303.6998 C.3      704 DT      0.0000
    518 C4'       -2.1128     6.9577  2302.9518 C.3      704 DT      0.0000
    519 O4'       -1.6750     5.6270  2302.8948 O.3      704 DT      0.0000
    520 C3'       -2.0224     7.4339  2301.4858 C.3      704 DT      0.0000
    521 O3'       -0.6344     7.7655  2301.3820 O.3      704 DT      0.0000
    522 C2'       -2.3662     6.1482  2300.7220 C.3      704 DT      0.0000
    523 C1'       -1.4532     5.2209  2301.4978 C.3      704 DT      0.0000
    524 N1        -1.7545     3.7904  2301.3916 N.am     704 DT      0.0000
    525 C2        -0.6404     2.9404  2301.3910 C.2      704 DT      0.0000
    526 O2         0.5054     3.3931  2301.4340 O.2      704 DT      0.0000
    527 N3        -0.8837     1.5980  2301.3375 N.am     704 DT      0.0000
    528 C4        -2.1424     1.0779  2301.2778 C.2      704 DT      0.0000
    529 O4        -2.2635    -0.1826  2301.2154 O.2      704 DT      0.0000
    530 C5        -3.2547     1.9630  2301.2860 C.2      704 DT      0.0000
    531 C7        -4.6588     1.3988  2301.2246 C.3      704 DT      0.0000
    532 C6        -3.0121     3.2753  2301.3525 C.2      704 DT      0.0000
    533 H5'       -3.4747     8.3409  2303.8220 H        704 DT      0.0000
    534 H5''      -3.3414     6.7836  2304.6784 H        704 DT      0.0000
    535 H4'       -1.3261     7.4974  2303.4791 H        704 DT      0.0000
    536 H3'       -2.6872     8.2668  2301.2571 H        704 DT      0.0000
    537 H2'       -2.1008     6.2070  2299.6665 H        704 DT      0.0000
    538 H2''      -3.4134     5.8761  2300.8536 H        704 DT      0.0000
    539 H1'       -0.4154     5.4031  2301.2187 H        704 DT      0.0000
    540 H3        -0.0979     0.9635  2301.3424 H        704 DT      0.0000
    541 H6        -3.8506     3.9556  2301.3762 H        704 DT      0.0000
    542 H71       -4.6120     0.3109  2301.1758 H        704 DT      0.0000
    543 H72       -5.1651     1.7806  2300.3380 H        704 DT      0.0000
    544 H73       -5.2103     1.6990  2302.1155 H        704 DT      0.0000
    545 P          0.0503     8.5578  2300.2358 P.3      703 DC      0.0000
    546 OP1        0.9301     9.6512  2300.8449 O.co2    703 DC      0.0000
    547 OP2       -1.0612     9.1845  2299.4539 O.co2    703 DC      0.0000
    548 O5'        0.8927     7.3755  2299.4964 O.3      703 DC      0.0000
    549 C5'        2.0816     6.9185  2300.2209 C.3      703 DC      0.0000
    550 C4'        3.0976     6.5522  2299.1704 C.3      703 DC      0.0000
    551 O4'        3.1352     5.1656  2298.9251 O.3      703 DC      0.0000
    552 C3'        2.8921     7.2123  2297.8059 C.3      703 DC      0.0000
    553 O3'        4.0984     7.5032  2297.0967 O.3      703 DC      0.0000
    554 C2'        1.9935     6.1742  2297.1198 C.3      703 DC      0.0000
    555 C1'        2.5375     4.8556  2297.6664 C.3      703 DC      0.0000
    556 N1         1.4043     3.9082  2297.7842 N.am     703 DC      0.0000
    557 C2         1.7140     2.5490  2297.8015 C.2      703 DC      0.0000
    558 O2         2.8876     2.1586  2297.7328 O.2      703 DC      0.0000
    559 N3         0.6700     1.6699  2297.9047 N.2      703 DC      0.0000
    560 C4        -0.6212     2.0870  2297.9754 C.2      703 DC      0.0000
    561 N4        -1.6051     1.1908  2298.0774 N.pl3    703 DC      0.0000
    562 C5        -0.9097     3.4801  2297.9503 C.2      703 DC      0.0000
    563 C6         0.1165     4.3429  2297.8567 C.2      703 DC      0.0000
    564 H5'        2.4663     7.7159  2300.8569 H        703 DC      0.0000
    565 H5''       1.8376     6.0445  2300.8248 H        703 DC      0.0000
    566 H4'        4.0789     6.8508  2299.5391 H        703 DC      0.0000
    567 H3'        2.3285     8.1355  2297.9401 H        703 DC      0.0000
    568 H2'        2.0930     6.2222  2296.0354 H        703 DC      0.0000
    569 H2''       0.9536     6.3119  2297.4158 H        703 DC      0.0000
    570 H1'        3.2891     4.4536  2296.9870 H        703 DC      0.0000
    571 H5        -1.9282     3.8353  2298.0051 H        703 DC      0.0000
    572 H6        -0.0850     5.4038  2297.8386 H        703 DC      0.0000
    573 H41       -1.3895     0.2043  2298.0981 H        703 DC      0.0000
    574 H42       -2.5653     1.4991  2298.1337 H        703 DC      0.0000
    575 P          4.3077     7.3989  2295.4647 P.3      702 DA      0.0000
    576 OP1        5.4601     8.2993  2295.0752 O.co2    702 DA      0.0000
    577 OP2        2.9896     7.7894  2294.8946 O.co2    702 DA      0.0000
    578 O5'        4.7823     5.8837  2295.2991 O.3      702 DA      0.0000
    579 C5'        6.1426     5.5302  2295.7646 C.3      702 DA      0.0000
    580 C4'        6.4690     4.3336  2294.8873 C.3      702 DA      0.0000
    581 O4'        5.5451     3.2709  2295.1546 O.3      702 DA      0.0000
    582 C3'        6.3098     4.6168  2293.3829 C.3      702 DA      0.0000
    583 O3'        6.9664     3.6376  2292.5938 O.3      702 DA      0.0000
    584 C2'        4.8054     4.3470  2293.1954 C.3      702 DA      0.0000
    585 C1'        4.8198     2.9895  2293.9501 C.3      702 DA      0.0000
    586 N9         3.4110     2.6377  2294.0955 N.ar     702 DA      0.0000
    587 C8         2.3516     3.5144  2294.1683 C.ar     702 DA      0.0000
    588 N7         1.1912     2.9187  2294.2830 N.ar     702 DA      0.0000
    589 C5         1.5206     1.5515  2294.2766 C.ar     702 DA      0.0000
    590 C6         0.6997     0.3946  2294.3765 C.ar     702 DA      0.0000
    591 N6        -0.6302     0.4353  2294.4994 N.pl3    702 DA      0.0000
    592 N1         1.3817    -0.7842  2294.3414 N.ar     702 DA      0.0000
    593 C2         2.7314    -0.8261  2294.2225 C.ar     702 DA      0.0000
    594 N3         3.5610     0.2173  2294.1310 N.ar     702 DA      0.0000
    595 C4         2.8770     1.3745  2294.1586 C.ar     702 DA      0.0000
    596 H5'        6.8440     6.3476  2295.5978 H        702 DA      0.0000
    597 H5''       6.1275     5.2440  2296.8162 H        702 DA      0.0000
    598 H4'        7.4851     3.9959  2295.0912 H        702 DA      0.0000
    599 H3'        6.5924     5.6344  2293.1132 H        702 DA      0.0000
    600 H2'        4.1757     5.0949  2293.6770 H        702 DA      0.0000
    601 H2''       4.5472     4.2202  2292.1440 H        702 DA      0.0000
    602 H1'        5.3405     2.2340  2293.3616 H        702 DA      0.0000
    603 H8         2.4666     4.5877  2294.1343 H        702 DA      0.0000
    604 H2         3.1840    -1.8063  2294.1993 H        702 DA      0.0000
    605 H61       -1.1080     1.3248  2294.5241 H        702 DA      0.0000
    606 H62       -1.1575    -0.4233  2294.5675 H        702 DA      0.0000
    607 P          7.9852     4.0639  2291.4529 P.3      701 DC      0.0000
    608 OP1        9.2729     4.2708  2292.2332 O.co2    701 DC      0.0000
    609 OP2        7.5528     5.2636  2290.7273 O.co2    701 DC      0.0000
    610 O5'        7.9175     2.7420  2290.4770 O.3      701 DC      0.0000
    611 C5'        8.1402     1.4422  2291.1461 C.3      701 DC      0.0000
    612 C4'        7.2479     0.4142  2290.5020 C.3      701 DC      0.0000
    613 O4'        5.9842     0.2718  2291.1392 O.3      701 DC      0.0000
    614 C3'        6.9509     0.7210  2289.0242 C.3      701 DC      0.0000
    615 O3'        6.8006    -0.4373  2288.2129 O.3      701 DC      0.0000
    616 C2'        5.5582     1.4128  2289.1899 C.3      701 DC      0.0000
    617 C1'        4.9986     0.2467  2290.0854 C.3      701 DC      0.0000
    618 N1         3.6074     0.5297  2290.3233 N.am     701 DC      0.0000
    619 C2         2.7642    -0.5229  2290.6405 C.2      701 DC      0.0000
    620 O2         3.0191    -1.7243  2290.7809 O.2      701 DC      0.0000
    621 N3         1.4398    -0.2467  2290.8387 N.2      701 DC      0.0000
    622 C4         0.9388     1.0207  2290.7227 C.2      701 DC      0.0000
    623 N4        -0.3667     1.2454  2290.9388 N.pl3    701 DC      0.0000
    624 C5         1.8162     2.0905  2290.3931 C.2      701 DC      0.0000
    625 C6         3.1072     1.7951  2290.2014 C.2      701 DC      0.0000
    626 H5'        9.1830     1.1452  2291.0346 H        701 DC      0.0000
    627 H5''       7.8951     1.5283  2292.2047 H        701 DC      0.0000
    628 H4'        7.7572    -0.5484  2290.5488 H        701 DC      0.0000
    629 H3'        7.6875     1.4065  2288.6052 H        701 DC      0.0000
    630 H2'        5.6086     2.3710  2289.7070 H        701 DC      0.0000
    631 H2''       5.0261     1.4892  2288.2416 H        701 DC      0.0000
    632 H1'        5.0832    -0.6935  2289.5405 H        701 DC      0.0000
    633 H5         1.4539     3.1037  2290.3009 H        701 DC      0.0000
    634 H6         3.7848     2.5938  2289.9381 H        701 DC      0.0000
    635 H41       -0.9781     0.4783  2291.1793 H        701 DC      0.0000
    636 H42       -0.7377     2.1816  2290.8609 H        701 DC      0.0000
    637 P         -8.7077    -4.9556  2324.8121 P.3      711 DG      0.0000
    638 OP1      -10.1911    -4.9880  2324.8105 O.co2    711 DG      0.0000
    639 OP2       -8.2881    -3.9223  2325.8678 O.co2    711 DG      0.0000
    640 O5'       -7.9585    -6.3479  2324.9905 O.3      711 DG      0.0000
    641 C5'       -7.3227    -7.1720  2323.9905 C.3      711 DG      0.0000
    642 C4'       -5.9397    -7.5359  2324.4893 C.3      711 DG      0.0000
    643 O4'       -4.9631    -6.6074  2324.0701 O.3      711 DG      0.0000
    644 C3'       -5.7501    -7.7192  2325.9815 C.3      711 DG      0.0000
    645 O3'       -5.1663    -9.0128  2326.2935 O.3      711 DG      0.0000
    646 C2'       -4.8800    -6.5505  2326.4033 C.3      711 DG      0.0000
    647 C1'       -4.1160    -6.2063  2325.1477 C.3      711 DG      0.0000
    648 N9        -3.8154    -4.7634  2325.1186 N.ar     711 DG      0.0000
    649 C8        -4.6488    -3.6941  2325.3475 C.ar     711 DG      0.0000
    650 N7        -4.0577    -2.5241  2325.2578 N.ar     711 DG      0.0000
    651 C5        -2.7397    -2.8425  2324.9408 C.ar     711 DG      0.0000
    652 C6        -1.6008    -2.0307  2324.7149 C.2      711 DG      0.0000
    653 O6        -1.5241    -0.8020  2324.7362 O.2      711 DG      0.0000
    654 N1        -0.4476    -2.7107  2324.4334 N.am     711 DG      0.0000
    655 C2        -0.3864    -4.0025  2324.3727 C.2      711 DG      0.0000
    656 N2         0.7964    -4.3795  2324.0759 N.pl3    711 DG      0.0000
    657 N3        -1.4501    -4.8861  2324.5815 N.2      711 DG      0.0000
    658 C4        -2.5768    -4.2125  2324.8540 C.ar     711 DG      0.0000
    659 H5'       -7.9080    -8.0778  2323.8317 H        711 DG      0.0000
    660 H5''      -7.2419    -6.6182  2323.0551 H        711 DG      0.0000
    661 H4'       -5.6828    -8.4877  2324.0246 H        711 DG      0.0000
    662 H3'       -6.7183    -7.6379  2326.4754 H        711 DG      0.0000
    663 H2'       -5.4906    -5.7089  2326.7303 H        711 DG      0.0000
    664 H2''      -4.1944    -6.8530  2327.1948 H        711 DG      0.0000
    665 H1'       -3.1870    -6.7755  2325.1158 H        711 DG      0.0000
    666 H8        -5.6975    -3.8061  2325.5806 H        711 DG      0.0000
    667 H1         0.3952    -2.1802  2324.2650 H        711 DG      0.0000
    668 H21        1.5237    -3.6938  2323.9316 H        711 DG      0.0000
    669 H22        1.0050    -5.3636  2323.9855 H        711 DG      0.0000
    670 P         -4.5961    -9.3688  2327.7220 P.3      712 DT      0.0000
    671 OP1       -4.8937   -10.7545  2328.2337 O.co2    712 DT      0.0000
    672 OP2       -5.4008    -8.4314  2328.6407 O.co2    712 DT      0.0000
    673 O5'       -3.1038    -8.9507  2327.7506 O.3      712 DT      0.0000
    674 C5'       -2.0103    -9.8984  2327.6066 C.3      712 DT      0.0000
    675 C4'       -0.7584    -9.0482  2327.6641 C.3      712 DT      0.0000
    676 O4'       -1.0232    -7.6901  2327.3889 O.3      712 DT      0.0000
    677 C3'       -0.0167    -9.0346  2328.9768 C.3      712 DT      0.0000
    678 O3'        1.2686    -9.6447  2328.7886 O.3      712 DT      0.0000
    679 C2'        0.1118    -7.5628  2329.3691 C.3      712 DT      0.0000
    680 C1'        0.0319    -6.9044  2328.0163 C.3      712 DT      0.0000
    681 N1        -0.4488    -5.5260  2328.1129 N.am     712 DT      0.0000
    682 C2         0.4632    -4.5251  2327.9150 C.2      712 DT      0.0000
    683 O2         1.6478    -4.7493  2327.6768 O.2      712 DT      0.0000
    684 N3         0.0039    -3.2380  2327.9961 N.am     712 DT      0.0000
    685 C4        -1.2886    -2.9337  2328.2520 C.2      712 DT      0.0000
    686 O4        -1.5613    -1.7056  2328.2973 O.2      712 DT      0.0000
    687 C5        -2.2293    -3.9946  2328.4517 C.2      712 DT      0.0000
    688 C7        -3.6674    -3.7010  2328.7316 C.3      712 DT      0.0000
    689 C6        -1.7712    -5.2503  2328.3702 C.2      712 DT      0.0000
    690 H5'       -2.0204   -10.6238  2328.4200 H        712 DT      0.0000
    691 H5''      -2.0766   -10.4081  2326.6454 H        712 DT      0.0000
    692 H4'       -0.0732    -9.4142  2326.8996 H        712 DT      0.0000
    693 H3'       -0.5829    -9.5771  2329.7339 H        712 DT      0.0000
    694 H2'       -0.7054    -7.2475  2330.0179 H        712 DT      0.0000
    695 H2''       1.0764    -7.3693  2329.8383 H        712 DT      0.0000
    696 H1'        0.9732    -6.9729  2327.4710 H        712 DT      0.0000
    697 H3         0.6595    -2.4822  2327.8586 H        712 DT      0.0000
    698 H6        -2.4602    -6.0701  2328.5106 H        712 DT      0.0000
    699 H71       -4.2536    -3.8573  2327.8260 H        712 DT      0.0000
    700 H72       -3.7700    -2.6656  2329.0563 H        712 DT      0.0000
    701 H73       -4.0277    -4.3656  2329.5169 H        712 DT      0.0000
    702 P          1.7481   -10.5266  2330.0686 P.3      713 DG      0.0000
    703 OP1        2.4582   -11.6690  2329.3535 O.co2    713 DG      0.0000
    704 OP2        0.5771   -10.9377  2330.8221 O.co2    713 DG      0.0000
    705 O5'        2.7548    -9.3955  2330.6781 O.3      713 DG      0.0000
    706 C5'        3.5806    -8.8368  2329.5875 C.3      713 DG      0.0000
    707 C4'        4.2398    -7.5934  2330.1075 C.3      713 DG      0.0000
    708 O4'        3.5404    -6.3911  2329.9270 O.3      713 DG      0.0000
    709 C3'        4.5776    -7.6890  2331.6156 C.3      713 DG      0.0000
    710 O3'        5.9883    -7.4026  2331.7744 O.3      713 DG      0.0000
    711 C2'        3.6161    -6.7187  2332.2681 C.3      713 DG      0.0000
    712 C1'        3.4663    -5.6553  2331.1866 C.3      713 DG      0.0000
    713 N9         2.2246    -4.8923  2331.3561 N.ar     713 DG      0.0000
    714 C8         0.9797    -5.3477  2331.6923 C.ar     713 DG      0.0000
    715 N7         0.0588    -4.4132  2331.7781 N.ar     713 DG      0.0000
    716 C5         0.7585    -3.2547  2331.4480 C.ar     713 DG      0.0000
    717 C6         0.3267    -1.9008  2331.3537 C.2      713 DG      0.0000
    718 O6        -0.8100    -1.4440  2331.5460 O.2      713 DG      0.0000
    719 N1         1.3200    -1.0092  2331.0187 N.am     713 DG      0.0000
    720 C2         2.6020    -1.4094  2330.7949 C.2      713 DG      0.0000
    721 N2         3.4339    -0.4060  2330.4861 N.pl3    713 DG      0.0000
    722 N3         3.0529    -2.6597  2330.8659 N.2      713 DG      0.0000
    723 C4         2.0842    -3.5324  2331.1925 C.ar     713 DG      0.0000
    724 H5'        4.3380    -9.5608  2329.2870 H        713 DG      0.0000
    725 H5''       2.9477    -8.5898  2328.7351 H        713 DG      0.0000
    726 H4'        5.1865    -7.4915  2329.5770 H        713 DG      0.0000
    727 H3'        4.3705    -8.6986  2331.9703 H        713 DG      0.0000
    728 H2'        2.6616    -7.1954  2332.4911 H        713 DG      0.0000
    729 H2''       4.0533    -6.2914  2333.1706 H        713 DG      0.0000
    730 H1'        4.3122    -4.9704  2331.2455 H        713 DG      0.0000
    731 H8         0.7697    -6.3917  2331.8730 H        713 DG      0.0000
    732 H1         1.0912    -0.0289  2330.9363 H        713 DG      0.0000
    733 H21        3.0862     0.5410  2330.4359 H        713 DG      0.0000
    734 H22        4.4089    -0.5963  2330.3034 H        713 DG      0.0000
    735 P          6.6964    -7.5232  2333.1628 P.3      714 DA      0.0000
    736 OP1        7.2612    -8.8604  2333.5182 O.co2    714 DA      0.0000
    737 OP2        5.4243    -7.2927  2334.0586 O.co2    714 DA      0.0000
    738 O5'        7.5783    -6.2290  2333.4120 O.3      714 DA      0.0000
    739 C5'        8.0882    -5.3684  2332.3829 C.3      714 DA      0.0000
    740 C4'        7.7890    -3.9555  2332.8572 C.3      714 DA      0.0000
    741 O4'        6.4057    -3.6892  2332.7669 O.3      714 DA      0.0000
    742 C3'        8.2139    -3.6173  2334.2863 C.3      714 DA      0.0000
    743 O3'        8.9111    -2.3555  2334.3386 O.3      714 DA      0.0000
    744 C2'        6.8685    -3.5893  2335.0217 C.3      714 DA      0.0000
    745 C1'        6.0170    -2.9354  2333.9441 C.3      714 DA      0.0000
    746 N9         4.5741    -3.0626  2334.1726 N.ar     714 DA      0.0000
    747 C8         3.8141    -4.1770  2334.3883 C.ar     714 DA      0.0000
    748 N7         2.5346    -3.9255  2334.5533 N.ar     714 DA      0.0000
    749 C5         2.4455    -2.5486  2334.4131 C.ar     714 DA      0.0000
    750 C6         1.3389    -1.6729  2334.4610 C.ar     714 DA      0.0000
    751 N6         0.0797    -2.0587  2334.6808 N.pl3    714 DA      0.0000
    752 N1         1.6326    -0.3522  2334.2712 N.ar     714 DA      0.0000
    753 C2         2.9026     0.0608  2334.0535 C.ar     714 DA      0.0000
    754 N3         3.9916    -0.7048  2333.9952 N.ar     714 DA      0.0000
    755 C4         3.6838    -2.0012  2334.1821 C.ar     714 DA      0.0000
    756 H5'        7.5868    -5.5672  2331.4357 H        714 DA      0.0000
    757 H5''       9.1639    -5.5084  2332.2751 H        714 DA      0.0000
    758 H4'        8.3029    -3.2659  2332.1874 H        714 DA      0.0000
    759 H3'        8.8442    -4.4109  2334.6877 H        714 DA      0.0000
    760 H2'        6.5168    -4.5914  2335.2672 H        714 DA      0.0000
    761 H2''       6.9218    -2.9636  2335.9126 H        714 DA      0.0000
    762 H1'        6.2911    -1.8866  2333.8296 H        714 DA      0.0000
    763 H8         4.2273    -5.1743  2334.4204 H        714 DA      0.0000
    764 H2         3.0489     1.1215  2333.9121 H        714 DA      0.0000
    765 H61       -0.2612    -3.0045  2334.5834 H        714 DA      0.0000
    766 H62       -0.6617    -1.3947  2334.5093 H        714 DA      0.0000
    767 P         10.0450    -2.0244  2335.4800 P.3      715 DA      0.0000
    768 OP1       11.3737    -1.7694  2334.8130 O.co2    715 DA      0.0000
    769 OP2        9.9771    -3.2438  2336.3109 O.co2    715 DA      0.0000
    770 O5'        9.5903    -0.5903  2336.0109 O.3      715 DA      0.0000
    771 C5'        9.5262     0.5722  2335.1865 C.3      715 DA      0.0000
    772 C4'        8.4104     1.4602  2335.7088 C.3      715 DA      0.0000
    773 O4'        7.1891     0.7771  2335.7370 O.3      715 DA      0.0000
    774 C3'        8.6016     2.0934  2337.0761 C.3      715 DA      0.0000
    775 O3'        8.6576     3.5176  2336.9983 O.3      715 DA      0.0000
    776 C2'        7.4401     1.5309  2337.9049 C.3      715 DA      0.0000
    777 C1'        6.4061     1.1681  2336.9111 C.3      715 DA      0.0000
    778 N9         5.4692     0.0619  2337.1791 N.ar     715 DA      0.0000
    779 C8         5.7045    -1.2868  2337.2943 C.ar     715 DA      0.0000
    780 N7         4.6217    -2.0080  2337.4636 N.ar     715 DA      0.0000
    781 C5         3.5918    -1.0735  2337.4266 C.ar     715 DA      0.0000
    782 C6         2.1798    -1.2140  2337.5471 C.ar     715 DA      0.0000
    783 N6         1.5330    -2.3569  2337.7387 N.pl3    715 DA      0.0000
    784 N1         1.4578    -0.0509  2337.4489 N.ar     715 DA      0.0000
    785 C2         2.0882     1.1445  2337.2598 C.ar     715 DA      0.0000
    786 N3         3.3966     1.3457  2337.1519 N.ar     715 DA      0.0000
    787 C4         4.0925     0.1947  2337.2438 C.ar     715 DA      0.0000
    788 H5'        9.3168     0.2836  2334.1565 H        715 DA      0.0000
    789 H5''      10.4742     1.1081  2335.2325 H        715 DA      0.0000
    790 H4'        8.2980     2.2772  2334.9961 H        715 DA      0.0000
    791 H3'        9.5384     1.7310  2337.4993 H        715 DA      0.0000
    792 H2'        7.7589     0.6520  2338.4651 H        715 DA      0.0000
    793 H2''       7.0585     2.2929  2338.5845 H        715 DA      0.0000
    794 H1'        5.8306     2.0604  2336.6650 H        715 DA      0.0000
    795 H8         6.6945    -1.7159  2337.2495 H        715 DA      0.0000
    796 H2         1.4573     2.0183  2337.1906 H        715 DA      0.0000
    797 H61        1.9989    -3.1917  2338.0649 H        715 DA      0.0000
    798 H62        0.5411    -2.3933  2337.5519 H        715 DA      0.0000
    799 P          9.5520     4.4820  2337.9545 P.3      716 DT      0.0000
    800 OP1       10.2187     5.5973  2337.1572 O.co2    716 DT      0.0000
    801 OP2       10.4506     3.6975  2338.7751 O.co2    716 DT      0.0000
    802 O5'        8.3873     5.3105  2338.7682 O.3      716 DT      0.0000
    803 C5'        7.2864     5.6560  2337.8231 C.3      716 DT      0.0000
    804 C4'        6.0258     5.4043  2338.6109 C.3      716 DT      0.0000
    805 O4'        5.7415     4.0367  2338.8028 O.3      716 DT      0.0000
    806 C3'        6.0951     6.0041  2340.0274 C.3      716 DT      0.0000
    807 O3'        5.4365     7.2571  2340.0291 O.3      716 DT      0.0000
    808 C2'        5.4607     4.9443  2340.9247 C.3      716 DT      0.0000
    809 C1'        4.7967     4.0450  2339.9601 C.3      716 DT      0.0000
    810 N1         4.5418     2.6542  2340.2998 N.am     716 DT      0.0000
    811 C2         3.2103     2.2747  2340.4378 C.2      716 DT      0.0000
    812 O2         2.3253     3.1161  2340.3497 O.2      716 DT      0.0000
    813 N3         2.9369     0.9646  2340.6918 N.am     716 DT      0.0000
    814 C4         3.9130     0.0173  2340.8119 C.2      716 DT      0.0000
    815 O4         3.5775    -1.1833  2341.0671 O.2      716 DT      0.0000
    816 C5         5.2762     0.4274  2340.6403 C.2      716 DT      0.0000
    817 C7         6.3883    -0.5807  2340.7279 C.3      716 DT      0.0000
    818 C6         5.5402     1.7203  2340.3846 C.2      716 DT      0.0000
    819 H5'        7.3506     6.7015  2337.5215 H        716 DT      0.0000
    820 H5''       7.3215     5.0071  2336.9481 H        716 DT      0.0000
    821 H4'        5.1894     5.8612  2338.0817 H        716 DT      0.0000
    822 H3'        7.1383     6.1424  2340.3118 H        716 DT      0.0000
    823 H2'        6.2194     4.4117  2341.4981 H        716 DT      0.0000
    824 H2''       4.7270     5.3979  2341.5911 H        716 DT      0.0000
    825 H1'        3.8603     4.5039  2339.6427 H        716 DT      0.0000
    826 H3         1.9727     0.6824  2340.7955 H        716 DT      0.0000
    827 H6         6.5649     2.0305  2340.2424 H        716 DT      0.0000
    828 H71        5.9713    -1.5650  2340.9409 H        716 DT      0.0000
    829 H72        6.9258    -0.6115  2339.7801 H        716 DT      0.0000
    830 H73        7.0745    -0.2964  2341.5257 H        716 DT      0.0000
    831 P          5.4084     8.3454  2341.1357 P.3      717 DT      0.0000
    832 OP1        5.0709     9.7295  2340.5237 O.co2    717 DT      0.0000
    833 OP2        6.7539     8.3341  2341.7657 O.co2    717 DT      0.0000
    834 O5'        4.1180     7.9875  2342.0181 O.3      717 DT      0.0000
    835 C5'        2.8753     8.2325  2341.3063 C.3      717 DT      0.0000
    836 C4'        1.7816     7.4812  2341.9825 C.3      717 DT      0.0000
    837 O4'        1.9546     6.0698  2341.9591 O.3      717 DT      0.0000
    838 C3'        1.5543     7.8749  2343.4491 C.3      717 DT      0.0000
    839 O3'        0.1696     7.9977  2343.7131 O.3      717 DT      0.0000
    840 C2'        2.1199     6.6372  2344.1854 C.3      717 DT      0.0000
    841 C1'        1.5218     5.5782  2343.2819 C.3      717 DT      0.0000
    842 N1         2.0693     4.2675  2343.5796 N.am     717 DT      0.0000
    843 C2         1.2042     3.1868  2343.6344 C.2      717 DT      0.0000
    844 O2         0.0016     3.3757  2343.4459 O.2      717 DT      0.0000
    845 N3         1.7275     1.9528  2343.9003 N.am     717 DT      0.0000
    846 C4         3.0587     1.7585  2344.1073 C.2      717 DT      0.0000
    847 O4         3.4727     0.5850  2344.3306 O.2      717 DT      0.0000
    848 C5         3.9400     2.8769  2344.0422 C.2      717 DT      0.0000
    849 C7         5.4201     2.7430  2344.2521 C.3      717 DT      0.0000
    850 C6         3.4091     4.0816  2343.7811 C.2      717 DT      0.0000
    851 H5'        2.6497     9.2989  2341.3187 H        717 DT      0.0000
    852 H5''       2.9707     7.8909  2340.2756 H        717 DT      0.0000
    853 H4'        0.8597     7.7012  2341.4440 H        717 DT      0.0000
    854 H3'        2.0969     8.7831  2343.7115 H        717 DT      0.0000
    855 H2'        3.2096     6.6161  2344.1842 H        717 DT      0.0000
    856 H2''       1.7235     6.5635  2345.1981 H        717 DT      0.0000
    857 H1'        0.4345     5.5715  2343.3575 H        717 DT      0.0000
    858 H3         1.1056     1.1583  2343.9447 H        717 DT      0.0000
    859 H6         4.0655     4.9376  2343.7280 H        717 DT      0.0000
    860 H71        5.6665     1.7000  2344.4511 H        717 DT      0.0000
    861 H72        5.9453     3.0757  2343.3569 H        717 DT      0.0000
    862 H73        5.7237     3.3562  2345.1005 H        717 DT      0.0000
    863 P         -0.7769     9.0921  2344.3211 P.3      718 DC      0.0000
    864 OP1       -1.6470     9.7266  2343.2531 O.co2    718 DC      0.0000
    865 OP2        0.1113    10.0111  2345.0560 O.co2    718 DC      0.0000
    866 O5'       -1.7363     8.0638  2345.1471 O.3      718 DC      0.0000
    867 C5'       -2.1552     7.0866  2344.1248 C.3      718 DC      0.0000
    868 C4'       -2.9923     6.0518  2344.8213 C.3      718 DC      0.0000
    869 O4'       -2.2919     4.8721  2345.0683 O.3      718 DC      0.0000
    870 C3'       -3.6551     6.5177  2346.1128 C.3      718 DC      0.0000
    871 O3'       -5.0641     6.3472  2346.0331 O.3      718 DC      0.0000
    872 C2'       -2.8860     5.7114  2347.1616 C.3      718 DC      0.0000
    873 C1'       -2.4887     4.4705  2346.4651 C.3      718 DC      0.0000
    874 N1        -1.1752     3.9096  2346.7973 N.am     718 DC      0.0000
    875 C2        -1.1453     2.5405  2347.0531 C.2      718 DC      0.0000
    876 O2        -2.1788     1.8647  2347.0575 O.2      718 DC      0.0000
    877 N3         0.0754     1.9746  2347.3269 N.2      718 DC      0.0000
    878 C4         1.2214     2.7141  2347.3170 C.2      718 DC      0.0000
    879 N4         2.3530     2.0757  2347.5938 N.pl3    718 DC      0.0000
    880 C5         1.1777     4.0981  2347.0390 C.2      718 DC      0.0000
    881 C6        -0.0291     4.6393  2346.7742 C.2      718 DC      0.0000
    882 H5'       -2.7413     7.5828  2343.3512 H        718 DC      0.0000
    883 H5''      -1.2782     6.6160  2343.6806 H        718 DC      0.0000
    884 H4'       -3.7993     5.7943  2344.1354 H        718 DC      0.0000
    885 H3'       -3.4379     7.5762  2346.2561 H        718 DC      0.0000
    886 H2'       -2.0071     6.2604  2347.4995 H        718 DC      0.0000
    887 H2''      -3.5332     5.4784  2348.0071 H        718 DC      0.0000
    888 H1'       -3.2675     3.7122  2346.5461 H        718 DC      0.0000
    889 H5         2.0749     4.6992  2347.0384 H        718 DC      0.0000
    890 H6        -0.0866     5.6910  2346.5351 H        718 DC      0.0000
    891 H41        2.3386     1.0857  2347.7930 H        718 DC      0.0000
    892 H42        3.2278     2.5804  2347.6051 H        718 DC      0.0000
    893 P         -6.1731     7.0522  2346.9852 P.3      719 DA      0.0000
    894 OP1       -7.4639     7.1138  2346.1914 O.co2    719 DA      0.0000
    895 OP2       -5.6797     8.4009  2347.3307 O.co2    719 DA      0.0000
    896 O5'       -6.2804     6.0451  2348.2822 O.3      719 DA      0.0000
    897 C5'       -6.5289     4.6364  2347.9869 C.3      719 DA      0.0000
    898 C4'       -6.5023     3.8276  2349.2422 C.3      719 DA      0.0000
    899 O4'       -5.2810     3.1226  2349.4844 O.3      719 DA      0.0000
    900 C3'       -6.6834     4.6204  2350.5475 C.3      719 DA      0.0000
    901 O3'       -7.0882     3.7156  2351.5774 O.3      719 DA      0.0000
    902 C2'       -5.2284     5.0830  2350.7621 C.3      719 DA      0.0000
    903 C1'       -4.5790     3.7072  2350.5788 C.3      719 DA      0.0000
    904 N9        -3.1378     3.8670  2350.4845 N.ar     719 DA      0.0000
    905 C8        -2.3725     4.9943  2350.3686 C.ar     719 DA      0.0000
    906 N7        -1.0685     4.7838  2350.3500 N.ar     719 DA      0.0000
    907 C5        -0.9694     3.4038  2350.4576 C.ar     719 DA      0.0000
    908 C6         0.1469     2.5322  2350.4921 C.ar     719 DA      0.0000
    909 N6         1.4057     2.9235  2350.4068 N.pl3    719 DA      0.0000
    910 N1        -0.1324     1.2022  2350.6247 N.ar     719 DA      0.0000
    911 C2        -1.4234     0.7521  2350.7048 C.ar     719 DA      0.0000
    912 N3        -2.5199     1.5060  2350.6750 N.ar     719 DA      0.0000
    913 C4        -2.2237     2.8231  2350.5520 C.ar     719 DA      0.0000
    914 H5'       -7.5066     4.5356  2347.5158 H        719 DA      0.0000
    915 H5''      -5.7610     4.2700  2347.3057 H        719 DA      0.0000
    916 H4'       -7.3057     3.0933  2349.1833 H        719 DA      0.0000
    917 H3'       -7.3732     5.4566  2350.4338 H        719 DA      0.0000
    918 H2'       -4.9029     5.8031  2350.0113 H        719 DA      0.0000
    919 H2''      -5.0763     5.4641  2351.7720 H        719 DA      0.0000
    920 H1'       -4.7927     3.1148  2351.4684 H        719 DA      0.0000
    921 H8        -2.8019     5.9827  2350.2976 H        719 DA      0.0000
    922 H2        -1.5649    -0.3142  2350.8013 H        719 DA      0.0000
    923 H61        2.2944     2.4788  2350.5869 H        719 DA      0.0000
    924 H62        1.5003     3.8785  2350.0921 H        719 DA      0.0000
    925 P         -8.6090     3.2383  2351.7179 P.3      720 DC      0.0000
    926 OP1       -9.4040     3.4354  2350.4728 O.co2    720 DC      0.0000
    927 OP2       -9.1009     4.0786  2352.8607 O.co2    720 DC      0.0000
    928 O5'       -8.4783     1.6835  2352.0010 O.3      720 DC      0.0000
    929 C5'       -8.2853     0.7294  2350.9133 C.3      720 DC      0.0000
    930 C4'       -7.5057    -0.3864  2351.6183 C.3      720 DC      0.0000
    931 O4'       -6.2304     0.1245  2351.9302 O.3      720 DC      0.0000
    932 C3'       -8.1395    -0.8474  2352.9282 C.3      720 DC      0.0000
    933 O3'       -8.3118    -2.2810  2352.9961 O.3      720 DC      0.0000
    934 C2'       -7.1985    -0.2967  2354.0104 C.3      720 DC      0.0000
    935 C1'       -5.8879    -0.3155  2353.3342 C.3      720 DC      0.0000
    936 N1        -4.8341     0.6324  2353.6870 N.am     720 DC      0.0000
    937 C2        -3.5399     0.1162  2353.6601 C.2      720 DC      0.0000
    938 O2        -3.3042    -1.0676  2353.4532 O.2      720 DC      0.0000
    939 N3        -2.5182     0.9775  2353.9132 N.2      720 DC      0.0000
    940 C4        -2.7197     2.2970  2354.1466 C.2      720 DC      0.0000
    941 N4        -1.6391     3.0402  2354.3775 N.pl3    720 DC      0.0000
    942 C5        -4.0442     2.8146  2354.1532 C.2      720 DC      0.0000
    943 C6        -5.0473     1.9587  2353.9037 C.2      720 DC      0.0000
    944 H5'       -9.2384     0.3668  2350.5285 H        720 DC      0.0000
    945 H5''      -7.6895     1.1707  2350.1143 H        720 DC      0.0000
    946 H4'       -7.4015    -1.2377  2350.9456 H        720 DC      0.0000
    947 H3'       -9.1140    -0.3708  2353.0341 H        720 DC      0.0000
    948 H2'       -7.4790     0.7167  2354.2974 H        720 DC      0.0000
    949 H2''      -7.1900    -0.9529  2354.8806 H        720 DC      0.0000
    950 H1'       -5.4889    -1.3298  2353.3209 H        720 DC      0.0000
    951 H5        -4.2359     3.8587  2354.3517 H        720 DC      0.0000
    952 H6        -6.0589     2.3357  2353.8740 H        720 DC      0.0000
    953 H41       -0.7226     2.6159  2354.3665 H        720 DC      0.0000
    954 H42       -1.7361     4.0282  2354.5637 H        720 DC      0.0000
    955 P          8.4390     0.9107  2355.9556 P.3      720 DG      0.0000
    956 OP1        9.9067     1.1363  2356.1343 O.co2    720 DG      0.0000
    957 OP2        7.8285     1.7881  2354.8708 O.co2    720 DG      0.0000
    958 O5'        8.1555    -0.6974  2355.7483 O.3      720 DG      0.0000
    959 C5'        7.5535    -1.4635  2356.8441 C.3      720 DG      0.0000
    960 C4'        6.5901    -2.4640  2356.2098 C.3      720 DG      0.0000
    961 O4'        5.2890    -1.9519  2356.1140 O.3      720 DG      0.0000
    962 C3'        6.9797    -2.9116  2354.8035 C.3      720 DG      0.0000
    963 O3'        6.7451    -4.3137  2354.5365 O.3      720 DG      0.0000
    964 C2'        6.1146    -2.0132  2353.9012 C.3      720 DG      0.0000
    965 C1'        4.8406    -1.9257  2354.7250 C.3      720 DG      0.0000
    966 N9         4.1175    -0.6720  2354.4517 N.ar     720 DG      0.0000
    967 C8         4.6417     0.5891  2354.2951 C.ar     720 DG      0.0000
    968 N7         3.7447     1.5137  2354.0767 N.ar     720 DG      0.0000
    969 C5         2.5418     0.8178  2354.1014 C.ar     720 DG      0.0000
    970 C6         1.2005     1.2581  2353.9450 C.2      720 DG      0.0000
    971 O6         0.8217     2.4216  2353.7482 O.2      720 DG      0.0000
    972 N1         0.2636     0.2581  2354.0319 N.am     720 DG      0.0000
    973 C2         0.5945    -1.0379  2354.2526 C.2      720 DG      0.0000
    974 N2        -0.4204    -1.8954  2354.3159 N.pl3    720 DG      0.0000
    975 N3         1.8393    -1.5044  2354.4103 N.2      720 DG      0.0000
    976 C4         2.7580    -0.5227  2354.3270 C.ar     720 DG      0.0000
    977 H5'        8.3275    -1.9907  2357.4019 H        720 DG      0.0000
    978 H5''       7.0081    -0.7938  2357.5090 H        720 DG      0.0000
    979 H4'        6.5570    -3.3481  2356.8465 H        720 DG      0.0000
    980 H3'        8.0321    -2.6848  2354.6330 H        720 DG      0.0000
    981 H2'        6.5682    -1.0325  2353.7585 H        720 DG      0.0000
    982 H2''       5.9240    -2.4954  2352.9425 H        720 DG      0.0000
    983 H1'        4.1994    -2.7829  2354.5198 H        720 DG      0.0000
    984 H8         5.7002     0.7971  2354.3478 H        720 DG      0.0000
    985 H1        -0.7119     0.4978  2353.9271 H        720 DG      0.0000
    986 H21       -1.3681    -1.5656  2354.2008 H        720 DG      0.0000
    987 H22       -0.2433    -2.8763  2354.4791 H        720 DG      0.0000
    988 P          6.4131    -4.6834  2353.0130 P.3      719 DT      0.0000
    989 OP1        6.8293    -6.0759  2352.6221 O.co2    719 DT      0.0000
    990 OP2        7.2296    -3.6618  2352.3125 O.co2    719 DT      0.0000
    991 O5'        4.8238    -4.5275  2352.8821 O.3      719 DT      0.0000
    992 C5'        4.0201    -5.7210  2353.1498 C.3      719 DT      0.0000
    993 C4'        2.7155    -5.5987  2352.3927 C.3      719 DT      0.0000
    994 O4'        2.2153    -4.2738  2352.3654 O.3      719 DT      0.0000
    995 C3'        2.8279    -6.0279  2350.9380 C.3      719 DT      0.0000
    996 O3'        1.6715    -6.7372  2350.4429 O.3      719 DT      0.0000
    997 C2'        3.0362    -4.7156  2350.2151 C.3      719 DT      0.0000
    998 C1'        2.0619    -3.8469  2350.9932 C.3      719 DT      0.0000
    999 N1         2.5198    -2.4568  2350.8419 N.am     719 DT      0.0000
   1000 C2         1.5423    -1.4727  2350.9487 C.2      719 DT      0.0000
   1001 O2         0.3700    -1.7790  2351.1385 O.2      719 DT      0.0000
   1002 N3         1.9491    -0.1733  2350.8285 N.am     719 DT      0.0000
   1003 C4         3.2532     0.1567  2350.6110 C.2      719 DT      0.0000
   1004 O4         3.5367     1.3964  2350.5134 O.2      719 DT      0.0000
   1005 C5         4.2313    -0.8730  2350.5046 C.2      719 DT      0.0000
   1006 C7         5.6732    -0.5204  2350.2756 C.3      719 DT      0.0000
   1007 C6         3.8283    -2.1404  2350.6264 C.2      719 DT      0.0000
   1008 H5'        4.5573    -6.6087  2352.8160 H        719 DT      0.0000
   1009 H5''       3.8182    -5.7949  2354.2184 H        719 DT      0.0000
   1010 H4'        1.9761    -6.2337  2352.8807 H        719 DT      0.0000
   1011 H3'        3.7132    -6.6517  2350.8140 H        719 DT      0.0000
   1012 H2'        4.0622    -4.3589  2350.3067 H        719 DT      0.0000
   1013 H2''       2.7411    -4.7941  2349.1688 H        719 DT      0.0000
   1014 H1'        1.0378    -3.9751  2350.6426 H        719 DT      0.0000
   1015 H3         1.2629     0.5640  2350.9032 H        719 DT      0.0000
   1016 H6         4.5569    -2.9342  2350.5522 H        719 DT      0.0000
   1017 H71        5.7764     0.5624  2350.2069 H        719 DT      0.0000
   1018 H72        6.2738    -0.8905  2351.1065 H        719 DT      0.0000
   1019 H73        6.0161    -0.9778  2349.3475 H        719 DT      0.0000
   1020 P          2.2268    -8.0938  2349.6645 P.3      718 DG      0.0000
   1021 OP1        2.2587    -9.3071  2350.5357 O.co2    718 DG      0.0000
   1022 OP2        3.5601    -7.5832  2349.2590 O.co2    718 DG      0.0000
   1023 O5'        1.0681    -8.3036  2348.5837 O.3      718 DG      0.0000
   1024 C5'       -0.1833    -8.9017  2349.0072 C.3      718 DG      0.0000
   1025 C4'       -1.2564    -7.9174  2348.5594 C.3      718 DG      0.0000
   1026 O4'       -0.8321    -6.5964  2348.8301 O.3      718 DG      0.0000
   1027 C3'       -1.5999    -7.9927  2347.0717 C.3      718 DG      0.0000
   1028 O3'       -2.9817    -8.2232  2346.8632 O.3      718 DG      0.0000
   1029 C2'       -1.0588    -6.6966  2346.4950 C.3      718 DG      0.0000
   1030 C1'       -1.0967    -5.7622  2347.6811 C.3      718 DG      0.0000
   1031 N9        -0.0766    -4.7175  2347.5576 N.ar     718 DG      0.0000
   1032 C8         1.2724    -4.8639  2347.3987 C.ar     718 DG      0.0000
   1033 N7         1.9209    -3.7274  2347.3206 N.ar     718 DG      0.0000
   1034 C5         0.9282    -2.7616  2347.4582 C.ar     718 DG      0.0000
   1035 C6         0.9821    -1.3428  2347.4676 C.2      718 DG      0.0000
   1036 O6         1.9820    -0.6388  2347.3686 O.2      718 DG      0.0000
   1037 N1        -0.2291    -0.7290  2347.6166 N.am     718 DG      0.0000
   1038 C2        -1.3968    -1.4406  2347.7495 C.2      718 DG      0.0000
   1039 N2        -2.5080    -0.7162  2347.8851 N.pl3    718 DG      0.0000
   1040 N3        -1.5170    -2.7721  2347.7538 N.2      718 DG      0.0000
   1041 C4        -0.3088    -3.3664  2347.6031 C.ar     718 DG      0.0000
   1042 H5'       -0.3271    -9.8704  2348.5284 H        718 DG      0.0000
   1043 H5''      -0.2008    -9.0110  2350.0915 H        718 DG      0.0000
   1044 H4'       -2.1630    -8.1121  2349.1324 H        718 DG      0.0000
   1045 H3'       -1.0441    -8.8215  2346.6331 H        718 DG      0.0000
   1046 H2'       -0.0402    -6.8248  2346.1286 H        718 DG      0.0000
   1047 H2''      -1.7083    -6.3313  2345.6994 H        718 DG      0.0000
   1048 H1'       -2.0848    -5.3101  2347.7682 H        718 DG      0.0000
   1049 H8         1.7591    -5.8263  2347.3426 H        718 DG      0.0000
   1050 H1        -0.2674     0.2802  2347.6295 H        718 DG      0.0000
   1051 H21       -2.4563     0.2924  2347.8861 H        718 DG      0.0000
   1052 H22       -3.4013    -1.1762  2347.9869 H        718 DG      0.0000
   1053 P         -4.1120    -7.5383  2345.9969 P.3      717 DA      0.0000
   1054 OP1       -5.4317    -7.5095  2346.7782 O.co2    717 DA      0.0000
   1055 OP2       -4.2418    -8.3784  2344.8042 O.co2    717 DA      0.0000
   1056 O5'       -3.6697    -5.9801  2345.8221 O.3      717 DA      0.0000
   1057 C5'       -4.0893    -5.1628  2346.9785 C.3      717 DA      0.0000
   1058 C4'       -5.0619    -4.1373  2346.4507 C.3      717 DA      0.0000
   1059 O4'       -4.4581    -2.8882  2346.2285 O.3      717 DA      0.0000
   1060 C3'       -5.6783    -4.5354  2345.1102 C.3      717 DA      0.0000
   1061 O3'       -7.0507    -4.2322  2345.0350 O.3      717 DA      0.0000
   1062 C2'       -4.7512    -3.8630  2344.1137 C.3      717 DA      0.0000
   1063 C1'       -4.1108    -2.7117  2344.8375 C.3      717 DA      0.0000
   1064 N9        -2.6559    -2.6692  2344.6120 N.ar     717 DA      0.0000
   1065 C8        -1.7773    -3.7145  2344.4256 C.ar     717 DA      0.0000
   1066 N7        -0.5320    -3.3469  2344.2297 N.ar     717 DA      0.0000
   1067 C5        -0.5920    -1.9617  2344.3166 C.ar     717 DA      0.0000
   1068 C6         0.4141    -0.9731  2344.2110 C.ar     717 DA      0.0000
   1069 N6         1.6902    -1.2422  2343.9985 N.pl3    717 DA      0.0000
   1070 N1        -0.0000     0.3182  2344.3347 N.ar     717 DA      0.0000
   1071 C2        -1.3117     0.6257  2344.5592 C.ar     717 DA      0.0000
   1072 N3        -2.3041    -0.2543  2344.6751 N.ar     717 DA      0.0000
   1073 C4        -1.8803    -1.5341  2344.5390 C.ar     717 DA      0.0000
   1074 H5'       -4.5736    -5.7904  2347.7266 H        717 DA      0.0000
   1075 H5''      -3.2239    -4.6643  2347.4152 H        717 DA      0.0000
   1076 H4'       -5.8636    -4.0115  2347.1784 H        717 DA      0.0000
   1077 H3'       -5.5665    -5.6137  2344.9971 H        717 DA      0.0000
   1078 H2'       -5.3188    -3.5002  2343.2568 H        717 DA      0.0000
   1079 H2''      -3.9869    -4.5663  2343.7831 H        717 DA      0.0000
   1080 H1'       -4.5507    -1.7810  2344.4793 H        717 DA      0.0000
   1081 H8        -2.0870    -4.7491  2344.4395 H        717 DA      0.0000
   1082 H2        -1.5654     1.6715  2344.6505 H        717 DA      0.0000
   1083 H61        2.4161    -0.6147  2344.3139 H        717 DA      0.0000
   1084 H62        1.9442    -2.0903  2343.5123 H        717 DA      0.0000
   1085 P         -7.9354    -3.6746  2343.8505 P.3      716 DA      0.0000
   1086 OP1       -9.3425    -3.2591  2344.3704 O.co2    716 DA      0.0000
   1087 OP2       -8.0849    -4.8341  2342.9168 O.co2    716 DA      0.0000
   1088 O5'       -7.2627    -2.3416  2343.3478 O.3      716 DA      0.0000
   1089 C5'       -7.7606    -1.0667  2343.8036 C.3      716 DA      0.0000
   1090 C4'       -6.9497     0.0008  2343.1017 C.3      716 DA      0.0000
   1091 O4'       -5.5880    -0.2971  2342.9809 O.3      716 DA      0.0000
   1092 C3'       -7.4516     0.3201  2341.6941 C.3      716 DA      0.0000
   1093 O3'       -7.9670     1.6644  2341.6627 O.3      716 DA      0.0000
   1094 C2'       -6.2632    -0.0244  2340.7946 C.3      716 DA      0.0000
   1095 C1'       -5.0815     0.1847  2341.6924 C.3      716 DA      0.0000
   1096 N9        -3.8892    -0.6014  2341.3928 N.ar     716 DA      0.0000
   1097 C8        -3.7662    -1.9616  2341.1980 C.ar     716 DA      0.0000
   1098 N7        -2.5301    -2.3582  2340.9926 N.ar     716 DA      0.0000
   1099 C5        -1.7858    -1.1970  2341.0671 C.ar     716 DA      0.0000
   1100 C6        -0.4004    -0.9542  2340.9336 C.ar     716 DA      0.0000
   1101 N6         0.4977    -1.9040  2340.6905 N.pl3    716 DA      0.0000
   1102 N1        -0.0198     0.3553  2341.0825 N.ar     716 DA      0.0000
   1103 C2        -0.9060     1.3377  2341.3350 C.ar     716 DA      0.0000
   1104 N3        -2.2262     1.1836  2341.4739 N.ar     716 DA      0.0000
   1105 C4        -2.5981    -0.1076  2341.3266 C.ar     716 DA      0.0000
   1106 H5'       -8.8153    -0.9638  2343.5485 H        716 DA      0.0000
   1107 H5''      -7.6302    -0.9819  2344.8824 H        716 DA      0.0000
   1108 H4'       -7.0325     0.9134  2343.6918 H        716 DA      0.0000
   1109 H3'       -8.2671    -0.3638  2341.4591 H        716 DA      0.0000
   1110 H2'       -6.3174    -1.0587  2340.4547 H        716 DA      0.0000
   1111 H2''      -6.2200     0.6549  2339.9433 H        716 DA      0.0000
   1112 H1'       -4.8330     1.2443  2341.7535 H        716 DA      0.0000
   1113 H8        -4.6080    -2.6381  2341.2130 H        716 DA      0.0000
   1114 H2        -0.5147     2.3395  2341.4341 H        716 DA      0.0000
   1115 H61        1.4405    -1.6919  2340.9845 H        716 DA      0.0000
   1116 H62        0.2545    -2.7762  2340.2432 H        716 DA      0.0000
   1117 P         -8.5472     2.2451  2340.2777 P.3      715 DT      0.0000
   1118 OP1       -9.3568     3.5038  2340.3359 O.co2    715 DT      0.0000
   1119 OP2       -9.2703     1.0412  2339.7651 O.co2    715 DT      0.0000
   1120 O5'       -7.0934     2.6569  2339.5746 O.3      715 DT      0.0000
   1121 C5'       -6.2351     3.2646  2340.5869 C.3      715 DT      0.0000
   1122 C4'       -5.2033     4.1041  2339.9040 C.3      715 DT      0.0000
   1123 O4'       -3.9823     3.4511  2339.7235 O.3      715 DT      0.0000
   1124 C3'       -5.6308     4.6307  2338.5427 C.3      715 DT      0.0000
   1125 O3'       -5.1531     5.9549  2338.2754 O.3      715 DT      0.0000
   1126 C2'       -5.0409     3.5316  2337.6494 C.3      715 DT      0.0000
   1127 C1'       -3.6871     3.3103  2338.2894 C.3      715 DT      0.0000
   1128 N1        -3.2049     1.9354  2338.0594 N.am     715 DT      0.0000
   1129 C2        -1.8391     1.7490  2337.9378 C.2      715 DT      0.0000
   1130 O2        -1.0603     2.7029  2337.9746 O.2      715 DT      0.0000
   1131 N3        -1.3778     0.4715  2337.7704 N.am     715 DT      0.0000
   1132 C4        -2.2188    -0.5963  2337.7219 C.2      715 DT      0.0000
   1133 O4        -1.7063    -1.7403  2337.5364 O.2      715 DT      0.0000
   1134 C5        -3.6182    -0.3851  2337.8703 C.2      715 DT      0.0000
   1135 C7        -4.5819    -1.5466  2337.8182 C.3      715 DT      0.0000
   1136 C6        -4.0523     0.8678  2338.0433 C.2      715 DT      0.0000
   1137 H5'       -6.8353     3.8887  2341.2490 H        715 DT      0.0000
   1138 H5''      -5.7446     2.4829  2341.1669 H        715 DT      0.0000
   1139 H4'       -5.0165     4.9687  2340.5410 H        715 DT      0.0000
   1140 H3'       -6.7182     4.6141  2338.4707 H        715 DT      0.0000
   1141 H2'       -5.6475     2.6266  2337.6800 H        715 DT      0.0000
   1142 H2''      -4.9294     3.8863  2336.6248 H        715 DT      0.0000
   1143 H1'       -2.9602     4.0508  2337.9554 H        715 DT      0.0000
   1144 H3        -0.3838     0.3171  2337.6802 H        715 DT      0.0000
   1145 H6        -5.1105     1.0397  2338.1746 H        715 DT      0.0000
   1146 H71       -4.9946    -1.6321  2336.8130 H        715 DT      0.0000
   1147 H72       -5.3906    -1.3796  2338.5297 H        715 DT      0.0000
   1148 H73       -4.0564    -2.4665  2338.0747 H        715 DT      0.0000
   1149 P         -5.4878     6.5402  2336.7855 P.3      714 DT      0.0000
   1150 OP1       -6.4523     7.7184  2336.9335 O.co2    714 DT      0.0000
   1151 OP2       -6.1894     5.3937  2336.1157 O.co2    714 DT      0.0000
   1152 O5'       -4.1455     6.9594  2336.1334 O.3      714 DT      0.0000
   1153 C5'       -3.0205     7.4153  2336.8848 C.3      714 DT      0.0000
   1154 C4'       -1.7784     7.0506  2336.1369 C.3      714 DT      0.0000
   1155 O4'       -1.4046     5.7005  2336.0799 O.3      714 DT      0.0000
   1156 C3'       -1.6654     7.5219  2334.6708 C.3      714 DT      0.0000
   1157 O3'       -0.2632     7.7870  2334.5670 O.3      714 DT      0.0000
   1158 C2'       -2.0702     6.2541  2333.9070 C.3      714 DT      0.0000
   1159 C1'       -1.2025     5.2842  2334.6828 C.3      714 DT      0.0000
   1160 N1        -1.5717     3.8698  2334.5766 N.am     714 DT      0.0000
   1161 C2        -0.4994     2.9676  2334.5760 C.2      714 DT      0.0000
   1162 O2         0.6667     3.3652  2334.6190 O.2      714 DT      0.0000
   1163 N3        -0.8064     1.6383  2334.5225 N.am     714 DT      0.0000
   1164 C4        -2.0885     1.1788  2334.4628 C.2      714 DT      0.0000
   1165 O4        -2.2696    -0.0744  2334.4004 O.2      714 DT      0.0000
   1166 C5        -3.1574     2.1160  2334.4710 C.2      714 DT      0.0000
   1167 C7        -4.5868     1.6194  2334.4096 C.3      714 DT      0.0000
   1168 C6        -2.8524     3.4153  2334.5375 C.2      714 DT      0.0000
   1169 H5'       -3.0728     8.4972  2337.0071 H        714 DT      0.0000
   1170 H5''      -3.0139     6.9353  2337.8634 H        714 DT      0.0000
   1171 H4'       -0.9669     7.5521  2336.6641 H        714 DT      0.0000
   1172 H3'       -2.2897     8.3856  2334.4421 H        714 DT      0.0000
   1173 H2'       -1.8023     6.3002  2332.8515 H        714 DT      0.0000
   1174 H2''      -3.1292     6.0323  2334.0387 H        714 DT      0.0000
   1175 H1'       -0.1571     5.4167  2334.4038 H        714 DT      0.0000
   1176 H3        -0.0518     0.9671  2334.5274 H        714 DT      0.0000
   1177 H6        -3.6575     4.1348  2334.5612 H        714 DT      0.0000
   1178 H71       -4.5919     0.5305  2334.3608 H        714 DT      0.0000
   1179 H72       -5.0742     2.0250  2333.5230 H        714 DT      0.0000
   1180 H73       -5.1233     1.9457  2335.3006 H        714 DT      0.0000
   1181 P          0.4586     8.5457  2333.4208 P.3      713 DC      0.0000
   1182 OP1        1.3895     9.5958  2334.0300 O.co2    713 DC      0.0000
   1183 OP2       -0.6218     9.2246  2332.6390 O.co2    713 DC      0.0000
   1184 O5'        1.2436     7.3245  2332.6814 O.3      713 DC      0.0000
   1185 C5'        2.4094     6.8114  2333.4059 C.3      713 DC      0.0000
   1186 C4'        3.4067     6.3969  2332.3554 C.3      713 DC      0.0000
   1187 O4'        3.3781     5.0101  2332.1101 O.3      713 DC      0.0000
   1188 C3'        3.2329     7.0661  2330.9910 C.3      713 DC      0.0000
   1189 O3'        4.4517     7.2991  2330.2817 O.3      713 DC      0.0000
   1190 C2'        2.2859     6.0720  2330.3049 C.3      713 DC      0.0000
   1191 C1'        2.7663     4.7290  2330.8514 C.3      713 DC      0.0000
   1192 N1         1.5892     3.8367  2330.9692 N.am     713 DC      0.0000
   1193 C2         1.8337     2.4643  2330.9865 C.2      713 DC      0.0000
   1194 O2         2.9873     2.0184  2330.9178 O.2      713 DC      0.0000
   1195 N3         0.7489     1.6361  2331.0897 N.2      713 DC      0.0000
   1196 C4        -0.5209     2.1143  2331.1605 C.2      713 DC      0.0000
   1197 N4        -1.5465     1.2660  2331.2624 N.pl3    713 DC      0.0000
   1198 C5        -0.7427     3.5195  2331.1353 C.2      713 DC      0.0000
   1199 C6         0.3236     4.3324  2331.0417 C.2      713 DC      0.0000
   1200 H5'        2.8316     7.5894  2334.0419 H        713 DC      0.0000
   1201 H5''       2.1239     5.9500  2334.0098 H        713 DC      0.0000
   1202 H4'        4.4011     6.6484  2332.7242 H        713 DC      0.0000
   1203 H3'        2.7140     8.0151  2331.1252 H        713 DC      0.0000
   1204 H2'        2.3875     6.1153  2329.2205 H        713 DC      0.0000
   1205 H2''       1.2536     6.2592  2330.6008 H        713 DC      0.0000
   1206 H1'        3.4978     4.2916  2330.1721 H        713 DC      0.0000
   1207 H5        -1.7430     3.9229  2331.1901 H        713 DC      0.0000
   1208 H6         0.1729     5.4017  2331.0236 H        713 DC      0.0000
   1209 H41       -1.3782     0.2703  2331.2831 H        713 DC      0.0000
   1210 H42       -2.4908     1.6198  2331.3188 H        713 DC      0.0000
   1211 P          4.6558     7.1850  2328.6497 P.3      712 DA      0.0000
   1212 OP1        5.8499     8.0294  2328.2602 O.co2    712 DA      0.0000
   1213 OP2        3.3579     7.6379  2328.0796 O.co2    712 DA      0.0000
   1214 O5'        5.0576     5.6489  2328.4842 O.3      712 DA      0.0000
   1215 C5'        6.3994     5.2308  2328.9496 C.3      712 DA      0.0000
   1216 C4'        6.6684     4.0200  2328.0723 C.3      712 DA      0.0000
   1217 O4'        5.6948     3.0026  2328.3396 O.3      712 DA      0.0000
   1218 C3'        6.5228     4.3105  2326.5679 C.3      712 DA      0.0000
   1219 O3'        7.1320     3.3010  2325.7789 O.3      712 DA      0.0000
   1220 C2'        5.0074     4.1127  2326.3804 C.3      712 DA      0.0000
   1221 C1'        4.9569     2.7561  2327.1351 C.3      712 DA      0.0000
   1222 N9         3.5329     2.4720  2327.2805 N.ar     712 DA      0.0000
   1223 C8         2.5166     3.3982  2327.3534 C.ar     712 DA      0.0000
   1224 N7         1.3291     2.8586  2327.4680 N.ar     712 DA      0.0000
   1225 C5         1.5929     1.4772  2327.4616 C.ar     712 DA      0.0000
   1226 C6         0.7178     0.3608  2327.5616 C.ar     712 DA      0.0000
   1227 N6        -0.6087     0.4649  2327.6844 N.pl3    712 DA      0.0000
   1228 N1         1.3427    -0.8493  2327.5264 N.ar     712 DA      0.0000
   1229 C2         2.6889    -0.9555  2327.4075 C.ar     712 DA      0.0000
   1230 N3         3.5673     0.0472  2327.3161 N.ar     712 DA      0.0000
   1231 C4         2.9393     1.2356  2327.3436 C.ar     712 DA      0.0000
   1232 H5'        7.1391     6.0138  2328.7828 H        712 DA      0.0000
   1233 H5''       6.3707     4.9457  2330.0012 H        712 DA      0.0000
   1234 H4'        7.6672     3.6343  2328.2763 H        712 DA      0.0000
   1235 H3'        6.8537     5.3134  2326.2983 H        712 DA      0.0000
   1236 H2'        4.4140     4.8899  2326.8621 H        712 DA      0.0000
   1237 H2''       4.7434     3.9985  2325.3291 H        712 DA      0.0000
   1238 H1'        5.4410     1.9767  2326.5467 H        712 DA      0.0000
   1239 H8         2.6827     4.4648  2327.3193 H        712 DA      0.0000
   1240 H2         3.0941    -1.9562  2327.3843 H        712 DA      0.0000
   1241 H61       -1.0435     1.3761  2327.7092 H        712 DA      0.0000
   1242 H62       -1.1764    -0.3676  2327.7525 H        712 DA      0.0000
   1243 P          8.1700     3.6783  2324.6379 P.3      711 DC      0.0000
   1244 OP1        9.4661     3.8235  2325.4182 O.co2    711 DC      0.0000
   1245 OP2        7.7954     4.8973  2323.9123 O.co2    711 DC      0.0000
   1246 O5'        8.0393     2.3611  2323.6621 O.3      711 DC      0.0000
   1247 C5'        8.1997     1.0521  2324.3311 C.3      711 DC      0.0000
   1248 C4'        7.2594     0.0679  2323.6871 C.3      711 DC      0.0000
   1249 O4'        5.9903    -0.0140  2324.3242 O.3      711 DC      0.0000
   1250 C3'        6.9774     0.3885  2322.2092 C.3      711 DC      0.0000
   1251 O3'        6.7720    -0.7613  2321.3979 O.3      711 DC      0.0000
   1252 C2'        5.6193     1.1460  2322.3749 C.3      711 DC      0.0000
   1253 C1'        5.0047     0.0080  2323.2705 C.3      711 DC      0.0000
   1254 N1         3.6285     0.3570  2323.5084 N.am     711 DC      0.0000
   1255 C2         2.7361    -0.6542  2323.8255 C.2      711 DC      0.0000
   1256 O2         2.9334    -1.8664  2323.9660 O.2      711 DC      0.0000
   1257 N3         1.4264    -0.3151  2324.0237 N.2      711 DC      0.0000
   1258 C4         0.9864     0.9748  2323.9077 C.2      711 DC      0.0000
   1259 N4        -0.3069     1.2615  2324.1238 N.pl3    711 DC      0.0000
   1260 C5         1.9139     2.0014  2323.5781 C.2      711 DC      0.0000
   1261 C6         3.1893     1.6449  2323.3864 C.2      711 DC      0.0000
   1262 H5'        9.2272     0.7058  2324.2196 H        711 DC      0.0000
   1263 H5''       7.9590     1.1499  2325.3897 H        711 DC      0.0000
   1264 H4'        7.7222    -0.9178  2323.7338 H        711 DC      0.0000
   1265 H3'        7.7459     1.0381  2321.7902 H        711 DC      0.0000
   1266 H2'        5.7153     2.1007  2322.8920 H        711 DC      0.0000
   1267 H2''       5.0914     1.2477  2321.4267 H        711 DC      0.0000
   1268 H1'        5.0443    -0.9352  2322.7256 H        711 DC      0.0000
   1269 H5         1.6003     3.0308  2323.4860 H        711 DC      0.0000
   1270 H6         3.9042     2.4103  2323.1231 H        711 DC      0.0000
   1271 H41       -0.9542     0.5245  2324.3643 H        711 DC      0.0000
   1272 H42       -0.6328     2.2143  2324.0459 H        711 DC      0.0000
   1273 P         -8.9342    -4.5345  2357.9971 P.3      721 DG      0.0000
   1274 OP1      -10.4175    -4.4961  2357.9956 O.co2    721 DG      0.0000
   1275 OP2       -8.4658    -3.5224  2359.0528 O.co2    721 DG      0.0000
   1276 O5'       -8.2523    -5.9610  2358.1755 O.3      721 DG      0.0000
   1277 C5'       -7.6565    -6.8145  2357.1755 C.3      721 DG      0.0000
   1278 C4'       -6.2925    -7.2439  2357.6743 C.3      721 DG      0.0000
   1279 O4'       -5.2727    -6.3631  2357.2552 O.3      721 DG      0.0000
   1280 C3'       -6.1118    -7.4361  2359.1665 C.3      721 DG      0.0000
   1281 O3'       -5.5904    -8.7561  2359.4785 O.3      721 DG      0.0000
   1282 C2'       -5.1870    -6.3102  2359.5884 C.3      721 DG      0.0000
   1283 C1'       -4.4075    -6.0029  2358.3327 C.3      721 DG      0.0000
   1284 N9        -4.0383    -4.5759  2358.3037 N.ar     721 DG      0.0000
   1285 C8        -4.8198    -3.4681  2358.5326 C.ar     721 DG      0.0000
   1286 N7        -4.1735    -2.3277  2358.4429 N.ar     721 DG      0.0000
   1287 C5        -2.8722    -2.7086  2358.1258 C.ar     721 DG      0.0000
   1288 C6        -1.6958    -1.9521  2357.8999 C.2      721 DG      0.0000
   1289 O6        -1.5607    -0.7283  2357.9212 O.2      721 DG      0.0000
   1290 N1        -0.5764    -2.6863  2357.6184 N.am     721 DG      0.0000
   1291 C2        -0.5769    -3.9795  2357.5578 C.2      721 DG      0.0000
   1292 N2         0.5865    -4.4125  2357.2610 N.pl3    721 DG      0.0000
   1293 N3        -1.6815    -4.8114  2357.7665 N.2      721 DG      0.0000
   1294 C4        -2.7748    -4.0847  2358.0391 C.ar     721 DG      0.0000
   1295 H5'       -8.2844    -7.6913  2357.0168 H        721 DG      0.0000
   1296 H5''      -7.5494    -6.2652  2356.2401 H        721 DG      0.0000
   1297 H4'       -6.0812    -8.2069  2357.2096 H        721 DG      0.0000
   1298 H3'       -7.0751    -7.3087  2359.6605 H        721 DG      0.0000
   1299 H2'       -5.7568    -5.4405  2359.9154 H        721 DG      0.0000
   1300 H2''      -4.5165    -6.6451  2360.3799 H        721 DG      0.0000
   1301 H1'       -3.5066    -6.6157  2358.3008 H        721 DG      0.0000
   1302 H8        -5.8726    -3.5299  2358.7656 H        721 DG      0.0000
   1303 H1         0.2908    -2.1966  2357.4500 H        721 DG      0.0000
   1304 H21        1.3458    -3.7623  2357.1166 H        721 DG      0.0000
   1305 H22        0.7479    -5.4054  2357.1705 H        721 DG      0.0000
   1306 P         -5.0379    -9.1389  2360.9070 P.3      722 DT      0.0000
   1307 OP1       -5.4013   -10.5088  2361.4187 O.co2    722 DT      0.0000
   1308 OP2       -5.7969    -8.1642  2361.8257 O.co2    722 DT      0.0000
   1309 O5'       -3.5273    -8.7924  2360.9356 O.3      722 DT      0.0000
   1310 C5'       -2.4803    -9.7912  2360.7916 C.3      722 DT      0.0000
   1311 C4'       -1.1892    -9.0017  2360.8491 C.3      722 DT      0.0000
   1312 O4'       -1.3889    -7.6326  2360.5740 O.3      722 DT      0.0000
   1313 C3'       -0.4478    -9.0235  2362.1619 C.3      722 DT      0.0000
   1314 O3'        0.8070    -9.6942  2361.9736 O.3      722 DT      0.0000
   1315 C2'       -0.2491    -7.5596  2362.5541 C.3      722 DT      0.0000
   1316 C1'       -0.2976    -6.8981  2361.2013 C.3      722 DT      0.0000
   1317 N1        -0.7120    -5.4983  2361.2980 N.am     722 DT      0.0000
   1318 C2         0.2468    -4.5420  2361.1001 C.2      722 DT      0.0000
   1319 O2         1.4193    -4.8225  2360.8619 O.2      722 DT      0.0000
   1320 N3        -0.1506    -3.2345  2361.1811 N.am     722 DT      0.0000
   1321 C4        -1.4271    -2.8689  2361.4370 C.2      722 DT      0.0000
   1322 O4        -1.6409    -1.6291  2361.4823 O.2      722 DT      0.0000
   1323 C5        -2.4174    -3.8837  2361.6367 C.2      722 DT      0.0000
   1324 C7        -3.8398    -3.5218  2361.9166 C.3      722 DT      0.0000
   1325 C6        -2.0197    -5.1598  2361.5552 C.2      722 DT      0.0000
   1326 H5'       -2.5249   -10.5153  2361.6051 H        722 DT      0.0000
   1327 H5''      -2.5709   -10.2971  2359.8304 H        722 DT      0.0000
   1328 H4'       -0.5222    -9.4000  2360.0846 H        722 DT      0.0000
   1329 H3'       -1.0392    -9.5384  2362.9190 H        722 DT      0.0000
   1330 H2'       -1.0504    -7.2056  2363.2029 H        722 DT      0.0000
   1331 H2''       0.7236    -7.4123  2363.0233 H        722 DT      0.0000
   1332 H1'        0.6394    -7.0114  2360.6560 H        722 DT      0.0000
   1333 H3         0.5403    -2.5108  2361.0436 H        722 DT      0.0000
   1334 H6        -2.7470    -5.9458  2361.6956 H        722 DT      0.0000
   1335 H71       -4.4328    -3.6500  2361.0111 H        722 DT      0.0000
   1336 H72       -3.8929    -2.4827  2362.2414 H        722 DT      0.0000
   1337 H73       -4.2314    -4.1684  2362.7019 H        722 DT      0.0000
   1338 P          1.2439   -10.5980  2363.2536 P.3      723 DG      0.0000
   1339 OP1        1.8987   -11.7730  2362.5385 O.co2    723 DG      0.0000
   1340 OP2        0.0546   -10.9528  2364.0071 O.co2    723 DG      0.0000
   1341 O5'        2.3034    -9.5162  2363.8631 O.3      723 DG      0.0000
   1342 C5'        3.1549    -8.9976  2362.7725 C.3      723 DG      0.0000
   1343 C4'        3.8726    -7.7871  2363.2926 C.3      723 DG      0.0000
   1344 O4'        3.2314    -6.5527  2363.1120 O.3      723 DG      0.0000
   1345 C3'        4.2056    -7.8986  2364.8006 C.3      723 DG      0.0000
   1346 O3'        5.6283    -7.6799  2364.9595 O.3      723 DG      0.0000
   1347 C2'        3.2914    -6.8836  2365.4532 C.3      723 DG      0.0000
   1348 C1'        3.1925    -5.8142  2364.3716 C.3      723 DG      0.0000
   1349 N9         1.9887    -4.9928  2364.5412 N.ar     723 DG      0.0000
   1350 C8         0.7234    -5.3884  2364.8774 C.ar     723 DG      0.0000
   1351 N7        -0.1518    -4.4109  2364.9631 N.ar     723 DG      0.0000
   1352 C5         0.6024    -3.2872  2364.6331 C.ar     723 DG      0.0000
   1353 C6         0.2357    -1.9142  2364.5387 C.2      723 DG      0.0000
   1354 O6        -0.8779    -1.4037  2364.7311 O.2      723 DG      0.0000
   1355 N1         1.2703    -1.0710  2364.2037 N.am     723 DG      0.0000
   1356 C2         2.5318    -1.5319  2363.9799 C.2      723 DG      0.0000
   1357 N2         3.4106    -0.5693  2363.6711 N.pl3    723 DG      0.0000
   1358 N3         2.9226    -2.8024  2364.0510 N.2      723 DG      0.0000
   1359 C4         1.9133    -3.6278  2364.3775 C.ar     723 DG      0.0000
   1360 H5'        3.8769    -9.7569  2362.4720 H        723 DG      0.0000
   1361 H5''       2.5346    -8.7207  2361.9201 H        723 DG      0.0000
   1362 H4'        4.8231    -7.7304  2362.7620 H        723 DG      0.0000
   1363 H3'        3.9505    -8.8972  2365.1554 H        723 DG      0.0000
   1364 H2'        2.3153    -7.3142  2365.6761 H        723 DG      0.0000
   1365 H2''       3.7486    -6.4776  2366.3556 H        723 DG      0.0000
   1366 H1'        4.0701    -5.1705  2364.4306 H        723 DG      0.0000
   1367 H8         0.4639    -6.4211  2365.0580 H        723 DG      0.0000
   1368 H1         1.0886    -0.0809  2364.1214 H        723 DG      0.0000
   1369 H21        3.1085     0.3931  2363.6209 H        723 DG      0.0000
   1370 H22        4.3754    -0.8060  2363.4884 H        723 DG      0.0000
   1371 P          6.3299    -7.8342  2366.3479 P.3      724 DA      0.0000
   1372 OP1        6.8302    -9.1967  2366.7032 O.co2    724 DA      0.0000
   1373 OP2        5.0702    -7.5432  2367.2436 O.co2    724 DA      0.0000
   1374 O5'        7.2724    -6.5835  2366.5970 O.3      724 DA      0.0000
   1375 C5'        7.8229    -5.7481  2365.5679 C.3      724 DA      0.0000
   1376 C4'        7.5914    -4.3226  2366.0423 C.3      724 DA      0.0000
   1377 O4'        6.2224    -3.9906  2365.9519 O.3      724 DA      0.0000
   1378 C3'        8.0320    -4.0051  2367.4713 C.3      724 DA      0.0000
   1379 O3'        8.7885    -2.7779  2367.5236 O.3      724 DA      0.0000
   1380 C2'        6.6894    -3.9129  2368.2068 C.3      724 DA      0.0000
   1381 C1'        5.8701    -3.2191  2367.1292 C.3      724 DA      0.0000
   1382 N9         4.4228    -3.2773  2367.3576 N.ar     724 DA      0.0000
   1383 C8         3.6105    -4.3542  2367.5733 C.ar     724 DA      0.0000
   1384 N7         2.3444    -4.0420  2367.7383 N.ar     724 DA      0.0000
   1385 C5         2.3211    -2.6624  2367.5981 C.ar     724 DA      0.0000
   1386 C6         1.2575    -1.7349  2367.6461 C.ar     724 DA      0.0000
   1387 N6        -0.0186    -2.0602  2367.8658 N.pl3    724 DA      0.0000
   1388 N1         1.6139    -0.4297  2367.4563 N.ar     724 DA      0.0000
   1389 C2         2.9022    -0.0778  2367.2385 C.ar     724 DA      0.0000
   1390 N3         3.9535    -0.8945  2367.1803 N.ar     724 DA      0.0000
   1391 C4         3.5841    -2.1747  2367.3671 C.ar     724 DA      0.0000
   1392 H5'        7.3126    -5.9229  2364.6208 H        724 DA      0.0000
   1393 H5''       8.8906    -5.9393  2365.4602 H        724 DA      0.0000
   1394 H4'        8.1376    -3.6584  2365.3725 H        724 DA      0.0000
   1395 H3'        8.6237    -4.8278  2367.8727 H        724 DA      0.0000
   1396 H2'        6.2904    -4.8971  2368.4523 H        724 DA      0.0000
   1397 H2''       6.7726    -3.2904  2369.0977 H        724 DA      0.0000
   1398 H1'        6.1939    -2.1846  2367.0147 H        724 DA      0.0000
   1399 H8         3.9756    -5.3701  2367.6054 H        724 DA      0.0000
   1400 H2         3.0989     0.9747  2367.0972 H        724 DA      0.0000
   1401 H61       -0.4043    -2.9886  2367.7684 H        724 DA      0.0000
   1402 H62       -0.7275    -1.3616  2367.6943 H        724 DA      0.0000
   1403 P          9.9369    -2.5013  2368.6650 P.3      725 DA      0.0000
   1404 OP1       11.2763    -2.3100  2367.9980 O.co2    725 DA      0.0000
   1405 OP2        9.8110    -3.7161  2369.4960 O.co2    725 DA      0.0000
   1406 O5'        9.5512    -1.0472  2369.1959 O.3      725 DA      0.0000
   1407 C5'        9.5426     0.1171  2368.3716 C.3      725 DA      0.0000
   1408 C4'        8.4705     1.0573  2368.8939 C.3      725 DA      0.0000
   1409 O4'        7.2180     0.4332  2368.9220 O.3      725 DA      0.0000
   1410 C3'        8.6917     1.6806  2370.2612 C.3      725 DA      0.0000
   1411 O3'        8.8156     3.1005  2370.1833 O.3      725 DA      0.0000
   1412 C2'        7.5046     1.1742  2371.0899 C.3      725 DA      0.0000
   1413 C1'        6.4545     0.8611  2370.0961 C.3      725 DA      0.0000
   1414 N9         5.4660    -0.1991  2370.3642 N.ar     725 DA      0.0000
   1415 C8         5.6366    -1.5575  2370.4793 C.ar     725 DA      0.0000
   1416 N7         4.5206    -2.2262  2370.6486 N.ar     725 DA      0.0000
   1417 C5         3.5365    -1.2436  2370.6116 C.ar     725 DA      0.0000
   1418 C6         2.1194    -1.3166  2370.7321 C.ar     725 DA      0.0000
   1419 N6         1.4188    -2.4274  2370.9237 N.pl3    725 DA      0.0000
   1420 N1         1.4537    -0.1204  2370.6339 N.ar     725 DA      0.0000
   1421 C2         2.1405     1.0436  2370.4448 C.ar     725 DA      0.0000
   1422 N3         3.4570     1.1821  2370.3370 N.ar     725 DA      0.0000
   1423 C4         4.0972    -0.0008  2370.4288 C.ar     725 DA      0.0000
   1424 H5'        9.3197    -0.1613  2367.3415 H        725 DA      0.0000
   1425 H5''      10.5152     0.6071  2368.4175 H        725 DA      0.0000
   1426 H4'        8.3972     1.8787  2368.1811 H        725 DA      0.0000
   1427 H3'        9.6101     1.2739  2370.6844 H        725 DA      0.0000
   1428 H2'        7.7812     0.2810  2371.6502 H        725 DA      0.0000
   1429 H2''       7.1599     1.9535  2371.7695 H        725 DA      0.0000
   1430 H1'        5.9222     1.7799  2369.8501 H        725 DA      0.0000
   1431 H8         6.6050    -2.0333  2370.4345 H        725 DA      0.0000
   1432 H2         1.5519     1.9465  2370.3757 H        725 DA      0.0000
   1433 H61        1.8444    -3.2834  2371.2499 H        725 DA      0.0000
   1434 H62        0.4263    -2.4164  2370.7369 H        725 DA      0.0000
   1435 P          9.7549     4.0211  2371.1396 P.3      726 DT      0.0000
   1436 OP1       10.4741     5.1034  2370.3423 O.co2    726 DT      0.0000
   1437 OP2       10.6151     3.1946  2371.9602 O.co2    726 DT      0.0000
   1438 O5'        8.6311     4.9043  2371.9533 O.3      726 DT      0.0000
   1439 C5'        7.5479     5.3020  2371.0082 C.3      726 DT      0.0000
   1440 C4'        6.2768     5.1106  2371.7959 C.3      726 DT      0.0000
   1441 O4'        5.9275     3.7582  2371.9879 O.3      726 DT      0.0000
   1442 C3'        6.3746     5.7064  2373.2125 C.3      726 DT      0.0000
   1443 O3'        5.7766     6.9895  2373.2142 O.3      726 DT      0.0000
   1444 C2'        5.6904     4.6781  2374.1097 C.3      726 DT      0.0000
   1445 C1'        4.9842     3.8116  2373.1451 C.3      726 DT      0.0000
   1446 N1         4.6633     2.4344  2373.4849 N.am     726 DT      0.0000
   1447 C2         3.3151     2.1190  2373.6228 C.2      726 DT      0.0000
   1448 O2         2.4713     3.0016  2373.5348 O.2      726 DT      0.0000
   1449 N3         2.9796     0.8234  2373.8768 N.am     726 DT      0.0000
   1450 C4         3.9094    -0.1694  2373.9969 C.2      726 DT      0.0000
   1451 O4         3.5170    -1.3526  2374.2521 O.2      726 DT      0.0000
   1452 C5         5.2906     0.1751  2373.8254 C.2      726 DT      0.0000
   1453 C7         6.3534    -0.8849  2373.9129 C.3      726 DT      0.0000
   1454 C6         5.6159     1.4540  2373.5696 C.2      726 DT      0.0000
   1455 H5'        7.6620     6.3432  2370.7065 H        726 DT      0.0000
   1456 H5''       7.5520     4.6520  2370.1332 H        726 DT      0.0000
   1457 H4'        5.4632     5.6069  2371.2668 H        726 DT      0.0000
   1458 H3'        7.4232     5.7948  2373.4968 H        726 DT      0.0000
   1459 H2'        6.4228     4.1100  2374.6831 H        726 DT      0.0000
   1460 H2''       4.9792     5.1662  2374.7761 H        726 DT      0.0000
   1461 H1'        4.0707     4.3146  2372.8278 H        726 DT      0.0000
   1462 H3         2.0030     0.5875  2373.9805 H        726 DT      0.0000
   1463 H6         6.6543     1.7150  2373.4275 H        726 DT      0.0000
   1464 H71        5.8899    -1.8481  2374.1259 H        726 DT      0.0000
   1465 H72        6.8888    -0.9413  2372.9651 H        726 DT      0.0000
   1466 H73        7.0523    -0.6336  2374.7107 H        726 DT      0.0000
   1467 P          5.8004     8.0778  2374.3208 P.3      727 DT      0.0000
   1468 OP1        5.5293     9.4765  2373.7087 O.co2    727 DT      0.0000
   1469 OP2        7.1438     8.0023  2374.9507 O.co2    727 DT      0.0000
   1470 O5'        4.4943     7.7820  2375.2031 O.3      727 DT      0.0000
   1471 C5'        3.2648     8.0860  2374.4913 C.3      727 DT      0.0000
   1472 C4'        2.1365     7.3877  2375.1675 C.3      727 DT      0.0000
   1473 O4'        2.2419     5.9696  2375.1442 O.3      727 DT      0.0000
   1474 C3'        1.9282     7.7917  2376.6341 C.3      727 DT      0.0000
   1475 O3'        0.5509     7.9805  2376.8982 O.3      727 DT      0.0000
   1476 C2'        2.4341     6.5285  2377.3705 C.3      727 DT      0.0000
   1477 C1'        1.7862     5.4992  2376.4669 C.3      727 DT      0.0000
   1478 N1         2.2706     4.1640  2376.7646 N.am     727 DT      0.0000
   1479 C2         1.3548     3.1257  2376.8194 C.2      727 DT      0.0000
   1480 O2         0.1626     3.3718  2376.6310 O.2      727 DT      0.0000
   1481 N3         1.8187     1.8682  2377.0853 N.am     727 DT      0.0000
   1482 C4         3.1391     1.6106  2377.2923 C.2      727 DT      0.0000
   1483 O4         3.4967     0.4187  2377.5156 O.2      727 DT      0.0000
   1484 C5         4.0728     2.6857  2377.2273 C.2      727 DT      0.0000
   1485 C7         5.5448     2.4813  2377.4372 C.3      727 DT      0.0000
   1486 C6         3.5999     3.9143  2376.9661 C.2      727 DT      0.0000
   1487 H5'        3.0904     9.1619  2374.5038 H        727 DT      0.0000
   1488 H5''       3.3438     7.7402  2373.4606 H        727 DT      0.0000
   1489 H4'        1.2262     7.6514  2374.6290 H        727 DT      0.0000
   1490 H3'        2.5135     8.6730  2376.8966 H        727 DT      0.0000
   1491 H2'        3.5216     6.4554  2377.3692 H        727 DT      0.0000
   1492 H2''       2.0347     6.4738  2378.3832 H        727 DT      0.0000
   1493 H1'        0.6998     5.5444  2376.5425 H        727 DT      0.0000
   1494 H3         1.1596     1.1042  2377.1297 H        727 DT      0.0000
   1495 H6         4.2965     4.7380  2376.9131 H        727 DT      0.0000
   1496 H71        5.7412     1.4277  2377.6361 H        727 DT      0.0000
   1497 H72        6.0853     2.7886  2376.5419 H        727 DT      0.0000
   1498 H73        5.8774     3.0793  2378.2856 H        727 DT      0.0000
   1499 P         -0.3422     9.1188  2377.5061 P.3      728 DC      0.0000
   1500 OP1       -1.1811     9.7941  2376.4382 O.co2    728 DC      0.0000
   1501 OP2        0.5888     9.9944  2378.2411 O.co2    728 DC      0.0000
   1502 O5'       -1.3496     8.1374  2378.3321 O.3      728 DC      0.0000
   1503 C5'       -1.8147     7.1814  2377.3099 C.3      728 DC      0.0000
   1504 C4'       -2.7002     6.1877  2378.0064 C.3      728 DC      0.0000
   1505 O4'       -2.0569     4.9759  2378.2533 O.3      728 DC      0.0000
   1506 C3'       -3.3400     6.6847  2379.2978 C.3      728 DC      0.0000
   1507 O3'       -4.7555     6.5815  2379.2182 O.3      728 DC      0.0000
   1508 C2'       -2.6102     5.8426  2380.3466 C.3      728 DC      0.0000
   1509 C1'       -2.2725     4.5841  2379.6502 C.3      728 DC      0.0000
   1510 N1        -0.9873     3.9612  2379.9823 N.am     728 DC      0.0000
   1511 C2        -1.0228     2.5922  2380.2381 C.2      728 DC      0.0000
   1512 O2        -2.0874     1.9665  2380.2426 O.2      728 DC      0.0000
   1513 N3         0.1695     1.9688  2380.5119 N.2      728 DC      0.0000
   1514 C4         1.3495     2.6528  2380.5020 C.2      728 DC      0.0000
   1515 N4         2.4494     1.9611  2380.7789 N.pl3    728 DC      0.0000
   1516 C5         1.3719     4.0372  2380.2240 C.2      728 DC      0.0000
   1517 C6         0.1923     4.6354  2379.9592 C.2      728 DC      0.0000
   1518 H5'       -2.3764     7.7050  2376.5362 H        728 DC      0.0000
   1519 H5''      -0.9611     6.6695  2376.8657 H        728 DC      0.0000
   1520 H4'       -3.5185     5.9690  2377.3204 H        728 DC      0.0000
   1521 H3'       -3.0725     7.7316  2379.4411 H        728 DC      0.0000
   1522 H2'       -1.7061     6.3490  2380.6845 H        728 DC      0.0000
   1523 H2''      -3.2678     5.6407  2381.1921 H        728 DC      0.0000
   1524 H1'       -3.0866     3.8638  2379.7312 H        728 DC      0.0000
   1525 H5         2.2968     4.5949  2380.2234 H        728 DC      0.0000
   1526 H6         0.1851     5.6886  2379.7202 H        728 DC      0.0000
   1527 H41        2.3877     0.9729  2380.9781 H        728 DC      0.0000
   1528 H42        3.3473     2.4235  2380.7902 H        728 DC      0.0000
   1529 P         -5.8296     7.3387  2380.1702 P.3      729 DA      0.0000
   1530 OP1       -7.1160     7.4618  2379.3765 O.co2    729 DA      0.0000
   1531 OP2       -5.2724     8.6624  2380.5157 O.co2    729 DA      0.0000
   1532 O5'       -5.9848     6.3378  2381.4672 O.3      729 DA      0.0000
   1533 C5'       -6.3003     4.9427  2381.1720 C.3      729 DA      0.0000
   1534 C4'       -6.3123     4.1334  2382.4273 C.3      729 DA      0.0000
   1535 O4'       -5.1261     3.3710  2382.6694 O.3      729 DA      0.0000
   1536 C3'       -6.4553     4.9340  2383.7325 C.3      729 DA      0.0000
   1537 O3'       -6.9029     4.0496  2384.7624 O.3      729 DA      0.0000
   1538 C2'       -4.9800     5.3267  2383.9471 C.3      729 DA      0.0000
   1539 C1'       -4.3969     3.9214  2383.7638 C.3      729 DA      0.0000
   1540 N9        -2.9497     4.0123  2383.6695 N.ar     729 DA      0.0000
   1541 C8        -2.1315     5.1018  2383.5537 C.ar     729 DA      0.0000
   1542 N7        -0.8390     4.8293  2383.5351 N.ar     729 DA      0.0000
   1543 C5        -0.8059     3.4462  2383.6426 C.ar     729 DA      0.0000
   1544 C6         0.2676     2.5223  2383.6771 C.ar     729 DA      0.0000
   1545 N6         1.5436     2.8531  2383.5919 N.pl3    729 DA      0.0000
   1546 N1        -0.0749     1.2071  2383.8097 N.ar     729 DA      0.0000
   1547 C2        -1.3859     0.8192  2383.8899 C.ar     729 DA      0.0000
   1548 N3        -2.4451     1.6245  2383.8600 N.ar     729 DA      0.0000
   1549 C4        -2.0865     2.9260  2383.7370 C.ar     729 DA      0.0000
   1550 H5'       -7.2817     4.8886  2380.7008 H        729 DA      0.0000
   1551 H5''      -5.5507     4.5400  2380.4907 H        729 DA      0.0000
   1552 H4'       -7.1498     3.4383  2382.3684 H        729 DA      0.0000
   1553 H3'       -7.1045     5.8022  2383.6188 H        729 DA      0.0000
   1554 H2'       -4.6205     6.0304  2383.1963 H        729 DA      0.0000
   1555 H2''      -4.8098     5.7000  2384.9570 H        729 DA      0.0000
   1556 H1'       -4.6386     3.3400  2384.6535 H        729 DA      0.0000
   1557 H8        -2.5133     6.1095  2383.4827 H        729 DA      0.0000
   1558 H2        -1.5781    -0.2392  2383.9863 H        729 DA      0.0000
   1559 H61        2.4101     2.3665  2383.7719 H        729 DA      0.0000
   1560 H62        1.6836     3.8026  2383.2771 H        729 DA      0.0000
   1561 P         -8.4447     3.6454  2384.9029 P.3      730 DC      0.0000
   1562 OP1       -9.2294     3.8802  2383.6578 O.co2    730 DC      0.0000
   1563 OP2       -8.8960     4.5081  2386.0458 O.co2    730 DC      0.0000
   1564 O5'       -8.3883     2.0861  2385.1861 O.3      730 DC      0.0000
   1565 C5'       -8.2410     1.1238  2384.0983 C.3      730 DC      0.0000
   1566 C4'       -7.5156    -0.0279  2384.8033 C.3      730 DC      0.0000
   1567 O4'       -6.2174     0.4216  2385.1153 O.3      730 DC      0.0000
   1568 C3'       -8.1706    -0.4581  2386.1132 C.3      730 DC      0.0000
   1569 O3'       -8.4112    -1.8819  2386.1811 O.3      730 DC      0.0000
   1570 C2'       -7.2045     0.0470  2387.1954 C.3      730 DC      0.0000
   1571 C1'       -5.8962    -0.0342  2386.5192 C.3      730 DC      0.0000
   1572 N1        -4.7985     0.8624  2386.8721 N.am     730 DC      0.0000
   1573 C2        -3.5304     0.2849  2386.8452 C.2      730 DC      0.0000
   1574 O2        -3.3513    -0.9087  2386.6382 O.2      730 DC      0.0000
   1575 N3        -2.4687     1.0966  2387.0983 N.2      730 DC      0.0000
   1576 C4        -2.6070     2.4241  2387.3316 C.2      730 DC      0.0000
   1577 N4        -1.4922     3.1149  2387.5626 N.pl3    730 DC      0.0000
   1578 C5        -3.9053     3.0043  2387.3382 C.2      730 DC      0.0000
   1579 C6        -4.9481     2.1973  2387.0888 C.2      730 DC      0.0000
   1580 H5'       -9.2104     0.8071  2383.7135 H        730 DC      0.0000
   1581 H5''      -7.6249     1.5362  2383.2993 H        730 DC      0.0000
   1582 H4'       -7.4521    -0.8832  2384.1306 H        730 DC      0.0000
   1583 H3'       -9.1214     0.0645  2386.2191 H        730 DC      0.0000
   1584 H2'       -7.4363     1.0727  2387.4824 H        730 DC      0.0000
   1585 H2''      -7.2273    -0.6088  2388.0657 H        730 DC      0.0000
   1586 H1'       -5.5461    -1.0664  2386.5060 H        730 DC      0.0000
   1587 H5        -4.0469     4.0564  2387.5367 H        730 DC      0.0000
   1588 H6        -5.9406     2.6221  2387.0590 H        730 DC      0.0000
   1589 H41       -0.5970     2.6474  2387.5515 H        730 DC      0.0000
   1590 H42       -1.5419     4.1064  2387.7487 H        730 DC      0.0000
   1591 P          8.4729     0.5070  2389.1406 P.3      730 DG      0.0000
   1592 OP1        9.9496     0.6624  2389.3194 O.co2    730 DG      0.0000
   1593 OP2        7.9048     1.4125  2388.0558 O.co2    730 DG      0.0000
   1594 O5'        8.1129    -1.0857  2388.9334 O.3      730 DG      0.0000
   1595 C5'        7.4751    -1.8222  2390.0291 C.3      730 DG      0.0000
   1596 C4'        6.4651    -2.7756  2389.3949 C.3      730 DG      0.0000
   1597 O4'        5.1899    -2.2020  2389.2990 O.3      730 DG      0.0000
   1598 C3'        6.8328    -3.2413  2387.9885 C.3      730 DG      0.0000
   1599 O3'        6.5316    -4.6305  2387.7215 O.3      730 DG      0.0000
   1600 C2'        6.0116    -2.3027  2387.0862 C.3      730 DG      0.0000
   1601 C1'        4.7432    -2.1544  2387.9101 C.3      730 DG      0.0000
   1602 N9         4.0808    -0.8676  2387.6368 N.ar     730 DG      0.0000
   1603 C8         4.6646     0.3670  2387.4801 C.ar     730 DG      0.0000
   1604 N7         3.8127     1.3333  2387.2617 N.ar     730 DG      0.0000
   1605 C5         2.5779     0.6956  2387.2865 C.ar     730 DG      0.0000
   1606 C6         1.2591     1.1994  2387.1300 C.2      730 DG      0.0000
   1607 O6         0.9363     2.3796  2386.9332 O.2      730 DG      0.0000
   1608 N1         0.2756     0.2452  2387.2169 N.am     730 DG      0.0000
   1609 C2         0.5443    -1.0650  2387.4376 C.2      730 DG      0.0000
   1610 N2        -0.5103    -1.8732  2387.5009 N.pl3    730 DG      0.0000
   1611 N3         1.7654    -1.5905  2387.5953 N.2      730 DG      0.0000
   1612 C4         2.7299    -0.6536  2387.5120 C.ar     730 DG      0.0000
   1613 H5'        8.2231    -2.3857  2390.5869 H        730 DG      0.0000
   1614 H5''       6.9623    -1.1273  2390.6941 H        730 DG      0.0000
   1615 H4'        6.3898    -3.6571  2390.0316 H        730 DG      0.0000
   1616 H3'        7.8949    -3.0649  2387.8180 H        730 DG      0.0000
   1617 H2'        6.5115    -1.3447  2386.9436 H        730 DG      0.0000
   1618 H2''       5.7981    -2.7752  2386.1275 H        730 DG      0.0000
   1619 H1'        4.0619    -2.9801  2387.7048 H        730 DG      0.0000
   1620 H8         5.7318     0.5242  2387.5328 H        730 DG      0.0000
   1621 H1        -0.6873     0.5312  2387.1121 H        730 DG      0.0000
   1622 H21       -1.4412    -1.4985  2387.3859 H        730 DG      0.0000
   1623 H22       -0.3803    -2.8614  2387.6641 H        730 DG      0.0000
   1624 P          6.1823    -4.9841  2386.1981 P.3      729 DT      0.0000
   1625 OP1        6.5317    -6.3948  2385.8072 O.co2    729 DT      0.0000
   1626 OP2        7.0466    -4.0026  2385.4975 O.co2    729 DT      0.0000
   1627 O5'        4.6023    -4.7525  2386.0672 O.3      729 DT      0.0000
   1628 C5'        3.7425    -5.9062  2386.3348 C.3      729 DT      0.0000
   1629 C4'        2.4453    -5.7219  2385.5777 C.3      729 DT      0.0000
   1630 O4'        2.0088    -4.3747  2385.5505 O.3      729 DT      0.0000
   1631 C3'        2.5371    -6.1560  2384.1230 C.3      729 DT      0.0000
   1632 O3'        1.3482    -6.8092  2383.6279 O.3      729 DT      0.0000
   1633 C2'        2.8078    -4.8551  2383.4002 C.3      729 DT      0.0000
   1634 C1'        1.8760    -3.9409  2384.1783 C.3      729 DT      0.0000
   1635 N1         2.3997    -2.5742  2384.0270 N.am     729 DT      0.0000
   1636 C2         1.4702    -1.5446  2384.1338 C.2      729 DT      0.0000
   1637 O2         0.2847    -1.7946  2384.3235 O.2      729 DT      0.0000
   1638 N3         1.9386    -0.2661  2384.0136 N.am     729 DT      0.0000
   1639 C4         3.2570     0.0013  2383.7960 C.2      729 DT      0.0000
   1640 O4         3.5993     1.2261  2383.6984 O.2      729 DT      0.0000
   1641 C5         4.1849    -1.0739  2383.6896 C.2      729 DT      0.0000
   1642 C7         5.6419    -0.7905  2383.4607 C.3      729 DT      0.0000
   1643 C6         3.7219    -2.3206  2383.8114 C.2      729 DT      0.0000
   1644 H5'        4.2368    -6.8186  2386.0011 H        729 DT      0.0000
   1645 H5''       3.5374    -5.9704  2387.4034 H        729 DT      0.0000
   1646 H4'        1.6764    -6.3209  2386.0657 H        729 DT      0.0000
   1647 H3'        3.3916    -6.8213  2383.9990 H        729 DT      0.0000
   1648 H2'        3.8496    -4.5478  2383.4917 H        729 DT      0.0000
   1649 H2''       2.5092    -4.9194  2382.3538 H        729 DT      0.0000
   1650 H1'        0.8470    -4.0201  2383.8276 H        729 DT      0.0000
   1651 H3         1.2884     0.5031  2384.0883 H        729 DT      0.0000
   1652 H6         4.4117    -3.1482  2383.7372 H        729 DT      0.0000
   1653 H71        5.7967     0.2862  2383.3920 H        729 DT      0.0000
   1654 H72        6.2241    -1.1888  2384.2916 H        729 DT      0.0000
   1655 H73        5.9626    -1.2637  2382.5325 H        729 DT      0.0000
   1656 P          1.8381    -8.1908  2382.8495 P.3      728 DG      0.0000
   1657 OP1        1.8121    -9.4042  2383.7208 O.co2    728 DG      0.0000
   1658 OP2        3.1943    -7.7444  2382.4440 O.co2    728 DG      0.0000
   1659 O5'        0.6707    -8.3451  2381.7687 O.3      728 DG      0.0000
   1660 C5'       -0.6078    -8.8829  2382.1922 C.3      728 DG      0.0000
   1661 C4'       -1.6327    -7.8484  2381.7445 C.3      728 DG      0.0000
   1662 O4'       -1.1459    -6.5492  2382.0152 O.3      728 DG      0.0000
   1663 C3'       -1.9794    -7.9073  2380.2567 C.3      728 DG      0.0000
   1664 O3'       -3.3707    -8.0716  2380.0482 O.3      728 DG      0.0000
   1665 C2'       -1.3771    -6.6384  2379.6800 C.3      728 DG      0.0000
   1666 C1'       -1.3704    -5.7033  2380.8662 C.3      728 DG      0.0000
   1667 N9        -0.3016    -4.7084  2380.7426 N.ar     728 DG      0.0000
   1668 C8         1.0389    -4.9190  2380.5837 C.ar     728 DG      0.0000
   1669 N7         1.7409    -3.8148  2380.5057 N.ar     728 DG      0.0000
   1670 C5         0.7954    -2.8027  2380.6432 C.ar     728 DG      0.0000
   1671 C6         0.9169    -1.3881  2380.6527 C.2      728 DG      0.0000
   1672 O6         1.9493    -0.7327  2380.5536 O.2      728 DG      0.0000
   1673 N1        -0.2636    -0.7172  2380.8016 N.am     728 DG      0.0000
   1674 C2        -1.4639    -1.3723  2380.9345 C.2      728 DG      0.0000
   1675 N2        -2.5393    -0.5958  2381.0702 N.pl3    728 DG      0.0000
   1676 N3        -1.6475    -2.6965  2380.9388 N.2      728 DG      0.0000
   1677 C4        -0.4691    -3.3479  2380.7881 C.ar     728 DG      0.0000
   1678 H5'       -0.7977    -9.8435  2381.7134 H        728 DG      0.0000
   1679 H5''      -0.6305    -8.9911  2383.2765 H        728 DG      0.0000
   1680 H4'       -2.5475    -7.9997  2382.3175 H        728 DG      0.0000
   1681 H3'       -1.4638    -8.7616  2379.8182 H        728 DG      0.0000
   1682 H2'       -0.3658    -6.8151  2379.3137 H        728 DG      0.0000
   1683 H2''      -2.0084    -6.2426  2378.8845 H        728 DG      0.0000
   1684 H1'       -2.3357    -5.2046  2380.9532 H        728 DG      0.0000
   1685 H8         1.4792    -5.9036  2380.5276 H        728 DG      0.0000
   1686 H1        -0.2537     0.2926  2380.8145 H        728 DG      0.0000
   1687 H21       -2.4396     0.4093  2381.0711 H        728 DG      0.0000
   1688 H22       -3.4535    -1.0126  2381.1720 H        728 DG      0.0000
   1689 P         -4.4669    -7.3335  2379.1819 P.3      727 DA      0.0000
   1690 OP1       -5.7838    -7.2418  2379.9633 O.co2    727 DA      0.0000
   1691 OP2       -4.6367    -8.1665  2377.9892 O.co2    727 DA      0.0000
   1692 O5'       -3.9509    -5.7982  2379.0071 O.3      727 DA      0.0000
   1693 C5'       -4.3309    -4.9618  2380.1636 C.3      727 DA      0.0000
   1694 C4'       -5.2535    -3.8911  2379.6358 C.3      727 DA      0.0000
   1695 O4'       -4.5908    -2.6722  2379.4135 O.3      727 DA      0.0000
   1696 C3'       -5.8882    -4.2593  2378.2953 C.3      727 DA      0.0000
   1697 O3'       -7.2446    -3.8910  2378.2201 O.3      727 DA      0.0000
   1698 C2'       -4.9301    -3.6319  2377.2987 C.3      727 DA      0.0000
   1699 C1'       -4.2355    -2.5124  2378.0225 C.3      727 DA      0.0000
   1700 N9        -2.7802    -2.5394  2377.7970 N.ar     727 DA      0.0000
   1701 C8        -1.9525    -3.6255  2377.6107 C.ar     727 DA      0.0000
   1702 N7        -0.6911    -3.3177  2377.4148 N.ar     727 DA      0.0000
   1703 C5        -0.6849    -1.9312  2377.5016 C.ar     727 DA      0.0000
   1704 C6         0.3672    -0.9917  2377.3960 C.ar     727 DA      0.0000
   1705 N6         1.6290    -1.3214  2377.1835 N.pl3    727 DA      0.0000
   1706 N1         0.0151     0.3178  2377.5197 N.ar     727 DA      0.0000
   1707 C2        -1.2804     0.6876  2377.7442 C.ar     727 DA      0.0000
   1708 N3        -2.3136    -0.1441  2377.8601 N.ar     727 DA      0.0000
   1709 C4        -1.9513    -1.4426  2377.7240 C.ar     727 DA      0.0000
   1710 H5'       -4.8447    -5.5656  2380.9116 H        727 DA      0.0000
   1711 H5''      -3.4427    -4.5052  2380.6002 H        727 DA      0.0000
   1712 H4'       -6.0483    -3.7272  2380.3634 H        727 DA      0.0000
   1713 H3'       -5.8280    -5.3418  2378.1822 H        727 DA      0.0000
   1714 H2'       -5.4797    -3.2425  2376.4418 H        727 DA      0.0000
   1715 H2''      -4.2002    -4.3709  2376.9682 H        727 DA      0.0000
   1716 H1'       -4.6305    -1.5618  2377.6644 H        727 DA      0.0000
   1717 H8        -2.3113    -4.6441  2377.6246 H        727 DA      0.0000
   1718 H2        -1.4839     1.7442  2377.8355 H        727 DA      0.0000
   1719 H61        2.3840    -0.7292  2377.4989 H        727 DA      0.0000
   1720 H62        1.8423    -2.1806  2376.6973 H        727 DA      0.0000
   1721 P         -8.1016    -3.2918  2377.0355 P.3      726 DA      0.0000
   1722 OP1       -9.4874    -2.8096  2377.5554 O.co2    726 DA      0.0000
   1723 OP2       -8.3064    -4.4428  2376.1018 O.co2    726 DA      0.0000
   1724 O5'       -7.3661    -1.9924  2376.5328 O.3      726 DA      0.0000
   1725 C5'       -7.8027    -0.6952  2376.9886 C.3      726 DA      0.0000
   1726 C4'       -6.9418     0.3324  2376.2867 C.3      726 DA      0.0000
   1727 O4'       -5.5958    -0.0302  2376.1660 O.3      726 DA      0.0000
   1728 C3'       -7.4278     0.6752  2374.8792 C.3      726 DA      0.0000
   1729 O3'       -7.8785     2.0426  2374.8477 O.3      726 DA      0.0000
   1730 C2'       -6.2572     0.2745  2373.9796 C.3      726 DA      0.0000
   1731 C1'       -5.0669     0.4269  2374.8774 C.3      726 DA      0.0000
   1732 N9        -3.9135    -0.4151  2374.5778 N.ar     726 DA      0.0000
   1733 C8        -3.8555    -1.7797  2374.3831 C.ar     726 DA      0.0000
   1734 N7        -2.6398    -2.2348  2374.1776 N.ar     726 DA      0.0000
   1735 C5        -1.8409    -1.1104  2374.2522 C.ar     726 DA      0.0000
   1736 C6        -0.4454    -0.9341  2374.1187 C.ar     726 DA      0.0000
   1737 N6         0.4063    -1.9255  2373.8755 N.pl3    726 DA      0.0000
   1738 N1        -0.0028     0.3558  2374.2675 N.ar     726 DA      0.0000
   1739 C2        -0.8411     1.3794  2374.5200 C.ar     726 DA      0.0000
   1740 N3        -2.1672     1.2884  2374.6589 N.ar     726 DA      0.0000
   1741 C4        -2.6003     0.0165  2374.5117 C.ar     726 DA      0.0000
   1742 H5'       -8.8512    -0.5422  2376.7335 H        726 DA      0.0000
   1743 H5''      -7.6683    -0.6167  2378.0674 H        726 DA      0.0000
   1744 H4'       -6.9809     1.2479  2376.8768 H        726 DA      0.0000
   1745 H3'       -8.2751     0.0310  2374.6442 H        726 DA      0.0000
   1746 H2'       -6.3607    -0.7560  2373.6397 H        726 DA      0.0000
   1747 H2''      -6.1817     0.9509  2373.1283 H        726 DA      0.0000
   1748 H1'       -4.7682     1.4734  2374.9385 H        726 DA      0.0000
   1749 H8        -4.7286    -2.4152  2374.3980 H        726 DA      0.0000
   1750 H2        -0.4025     2.3614  2374.6191 H        726 DA      0.0000
   1751 H61        1.3581    -1.7587  2374.1695 H        726 DA      0.0000
   1752 H62        0.1217    -2.7852  2373.4282 H        726 DA      0.0000
   1753 P         -8.4304     2.6503  2373.4628 P.3      725 DT      0.0000
   1754 OP1       -9.1790     3.9462  2373.5209 O.co2    725 DT      0.0000
   1755 OP2       -9.2100     1.4823  2372.9501 O.co2    725 DT      0.0000
   1756 O5'       -6.9586     2.9923  2372.7596 O.3      725 DT      0.0000
   1757 C5'       -6.0722     3.5583  2373.7719 C.3      725 DT      0.0000
   1758 C4'       -5.0015     4.3477  2373.0890 C.3      725 DT      0.0000
   1759 O4'       -3.8131     3.6371  2372.9086 O.3      725 DT      0.0000
   1760 C3'       -5.4034     4.8941  2371.7277 C.3      725 DT      0.0000
   1761 O3'       -4.8631     6.1940  2371.4604 O.3      725 DT      0.0000
   1762 C2'       -4.8666     3.7681  2370.8344 C.3      725 DT      0.0000
   1763 C1'       -3.5249     3.4824  2371.4744 C.3      725 DT      0.0000
   1764 N1        -3.1089     2.0861  2371.2445 N.am     725 DT      0.0000
   1765 C2        -1.7536     1.8348  2371.1228 C.2      725 DT      0.0000
   1766 O2        -0.9302     2.7504  2371.1596 O.2      725 DT      0.0000
   1767 N3        -1.3538     0.5367  2370.9554 N.am     725 DT      0.0000
   1768 C4        -2.2447    -0.4897  2370.9069 C.2      725 DT      0.0000
   1769 O4        -1.7874    -1.6569  2370.7214 O.2      725 DT      0.0000
   1770 C5        -3.6324    -0.2120  2371.0553 C.2      725 DT      0.0000
   1771 C7        -4.6505    -1.3263  2371.0032 C.3      725 DT      0.0000
   1772 C6        -4.0063     1.0601  2371.2283 C.2      725 DT      0.0000
   1773 H5'       -6.6420     4.2104  2374.4340 H        725 DT      0.0000
   1774 H5''      -5.6196     2.7541  2374.3520 H        725 DT      0.0000
   1775 H4'       -4.7737     5.2023  2373.7260 H        725 DT      0.0000
   1776 H3'       -6.4904     4.9294  2371.6557 H        725 DT      0.0000
   1777 H2'       -5.5157     2.8930  2370.8650 H        725 DT      0.0000
   1778 H2''      -4.7384     4.1171  2369.8098 H        725 DT      0.0000
   1779 H1'       -2.7636     4.1874  2371.1405 H        725 DT      0.0000
   1780 H3        -0.3682     0.3351  2370.8653 H        725 DT      0.0000
   1781 H6        -5.0550     1.2823  2371.3597 H        725 DT      0.0000
   1782 H71       -5.0668    -1.3920  2369.9980 H        725 DT      0.0000
   1783 H72       -5.4503    -1.1209  2371.7148 H        725 DT      0.0000
   1784 H73       -4.1695    -2.2701  2371.2597 H        725 DT      0.0000
   1785 P         -5.1695     6.7946  2369.9705 P.3      724 DT      0.0000
   1786 OP1       -6.0767     8.0174  2370.1185 O.co2    724 DT      0.0000
   1787 OP2       -5.9250     5.6828  2369.3007 O.co2    724 DT      0.0000
   1788 O5'       -3.8088     7.1492  2369.3185 O.3      724 DT      0.0000
   1789 C5'       -2.6633     7.5510  2370.0699 C.3      724 DT      0.0000
   1790 C4'       -1.4400     7.1274  2369.3219 C.3      724 DT      0.0000
   1791 O4'       -1.1311     5.7610  2369.2649 O.3      724 DT      0.0000
   1792 C3'       -1.3046     7.5928  2367.8559 C.3      724 DT      0.0000
   1793 O3'        0.1086     7.7907  2367.7521 O.3      724 DT      0.0000
   1794 C2'       -1.7695     6.3457  2367.0921 C.3      724 DT      0.0000
   1795 C1'       -0.9490     5.3356  2367.8678 C.3      724 DT      0.0000
   1796 N1        -1.3853     3.9404  2367.7617 N.am     724 DT      0.0000
   1797 C2        -0.3573     2.9880  2367.7610 C.2      724 DT      0.0000
   1798 O2         0.8265     3.3295  2367.8041 O.2      724 DT      0.0000
   1799 N3        -0.7273     1.6749  2367.7076 N.am     724 DT      0.0000
   1800 C4        -2.0299     1.2771  2367.6478 C.2      724 DT      0.0000
   1801 O4        -2.2706     0.0339  2367.5854 O.2      724 DT      0.0000
   1802 C5        -3.0528     2.2642  2367.6561 C.2      724 DT      0.0000
   1803 C7        -4.5043     1.8364  2367.5947 C.3      724 DT      0.0000
   1804 C6        -2.6862     3.5475  2367.7226 C.2      724 DT      0.0000
   1805 H5'       -2.6639     8.6341  2370.1921 H        724 DT      0.0000
   1806 H5''      -2.6796     7.0712  2371.0485 H        724 DT      0.0000
   1807 H4'       -0.6055     7.5897  2369.8491 H        724 DT      0.0000
   1808 H3'       -1.8870     8.4853  2367.6271 H        724 DT      0.0000
   1809 H2'       -1.4996     6.3790  2366.0365 H        724 DT      0.0000
   1810 H2''      -2.8378     6.1747  2367.2237 H        724 DT      0.0000
   1811 H1'        0.1015     5.4181  2367.5888 H        724 DT      0.0000
   1812 H3        -0.0056     0.9685  2367.7125 H        724 DT      0.0000
   1813 H6        -3.4560     4.3046  2367.7463 H        724 DT      0.0000
   1814 H71       -4.5614     0.7490  2367.5458 H        724 DT      0.0000
   1815 H72       -4.9718     2.2647  2366.7081 H        724 DT      0.0000
   1816 H73       -5.0247     2.1879  2368.4856 H        724 DT      0.0000
   1817 P          0.8658     8.5141  2366.6059 P.3      723 DC      0.0000
   1818 OP1        1.8457     9.5186  2367.2150 O.co2    723 DC      0.0000
   1819 OP2       -0.1810     9.2438  2365.8240 O.co2    723 DC      0.0000
   1820 O5'        1.5916     7.2568  2365.8665 O.3      723 DC      0.0000
   1821 C5'        2.7316     6.6886  2366.5910 C.3      723 DC      0.0000
   1822 C4'        3.7080     6.2271  2365.5404 C.3      723 DC      0.0000
   1823 O4'        3.6133     4.8432  2365.2952 O.3      723 DC      0.0000
   1824 C3'        3.5663     6.9038  2364.1760 C.3      723 DC      0.0000
   1825 O3'        4.7949     7.0784  2363.4667 O.3      723 DC      0.0000
   1826 C2'        2.5729     5.9560  2363.4899 C.3      723 DC      0.0000
   1827 C1'        2.9888     4.5917  2364.0365 C.3      723 DC      0.0000
   1828 N1         1.7704     3.7565  2364.1543 N.am     723 DC      0.0000
   1829 C2         1.9492     2.3740  2364.1715 C.2      723 DC      0.0000
   1830 O2         3.0802     1.8736  2364.1029 O.2      723 DC      0.0000
   1831 N3         0.8261     1.5985  2364.2748 N.2      723 DC      0.0000
   1832 C4        -0.4194     2.1367  2364.3455 C.2      723 DC      0.0000
   1833 N4        -1.4843     1.3383  2364.4474 N.pl3    723 DC      0.0000
   1834 C5        -0.5739     3.5509  2364.3204 C.2      723 DC      0.0000
   1835 C6         0.5299     4.3120  2364.2268 C.2      723 DC      0.0000
   1836 H5'        3.1905     7.4457  2367.2269 H        723 DC      0.0000
   1837 H5''       2.4053     5.8418  2367.1949 H        723 DC      0.0000
   1838 H4'        4.7133     6.4308  2365.9092 H        723 DC      0.0000
   1839 H3'        3.0933     7.8765  2364.3102 H        723 DC      0.0000
   1840 H2'        2.6765     5.9944  2362.4055 H        723 DC      0.0000
   1841 H2''       1.5508     6.1922  2363.7859 H        723 DC      0.0000
   1842 H1'        3.6986     4.1198  2363.3571 H        723 DC      0.0000
   1843 H5        -1.5538     4.0016  2364.3752 H        723 DC      0.0000
   1844 H6         0.4305     5.3873  2364.2087 H        723 DC      0.0000
   1845 H41       -1.3637     0.3358  2364.4681 H        723 DC      0.0000
   1846 H42       -2.4107     1.7368  2364.5038 H        723 DC      0.0000
   1847 P          4.9933     6.9547  2361.8347 P.3      722 DA      0.0000
   1848 OP1        6.2263     7.7411  2361.4453 O.co2    722 DA      0.0000
   1849 OP2        3.7185     7.4690  2361.2647 O.co2    722 DA      0.0000
   1850 O5'        5.3214     5.4011  2361.6692 O.3      722 DA      0.0000
   1851 C5'        6.6417     4.9195  2362.1346 C.3      722 DA      0.0000
   1852 C4'        6.8526     3.6973  2361.2574 C.3      722 DA      0.0000
   1853 O4'        5.8316     2.7275  2361.5247 O.3      722 DA      0.0000
   1854 C3'        6.7211     3.9944  2359.7529 C.3      722 DA      0.0000
   1855 O3'        7.2814     2.9570  2358.9639 O.3      722 DA      0.0000
   1856 C2'        5.1979     3.8691  2359.5655 C.3      722 DA      0.0000
   1857 C1'        5.0828     2.5165  2360.3201 C.3      722 DA      0.0000
   1858 N9         3.6469     2.3006  2360.4656 N.ar     722 DA      0.0000
   1859 C8         2.6759     3.2742  2360.5384 C.ar     722 DA      0.0000
   1860 N7         1.4639     2.7919  2360.6530 N.ar     722 DA      0.0000
   1861 C5         1.6615     1.3995  2360.6467 C.ar     722 DA      0.0000
   1862 C6         0.7341     0.3261  2360.7466 C.ar     722 DA      0.0000
   1863 N6        -0.5858     0.4934  2360.8694 N.pl3    722 DA      0.0000
   1864 N1         1.3007    -0.9124  2360.7115 N.ar     722 DA      0.0000
   1865 C2         2.6402    -1.0826  2360.5926 C.ar     722 DA      0.0000
   1866 N3         3.5655    -0.1231  2360.5011 N.ar     722 DA      0.0000
   1867 C4         2.9949     1.0940  2360.5286 C.ar     722 DA      0.0000
   1868 H5'        7.4179     5.6664  2361.9679 H        722 DA      0.0000
   1869 H5''       6.5994     4.6361  2363.1863 H        722 DA      0.0000
   1870 H4'        7.8319     3.2643  2361.4613 H        722 DA      0.0000
   1871 H3'        7.0994     4.9804  2359.4833 H        722 DA      0.0000
   1872 H2'        4.6422     4.6737  2360.0471 H        722 DA      0.0000
   1873 H2''       4.9288     3.7676  2358.5141 H        722 DA      0.0000
   1874 H1'        5.5291     1.7149  2359.7317 H        722 DA      0.0000
   1875 H8         2.8927     4.3317  2360.5044 H        722 DA      0.0000
   1876 H2         2.9973    -2.1016  2360.5694 H        722 DA      0.0000
   1877 H61       -0.9767     1.4243  2360.8942 H        722 DA      0.0000
   1878 H62       -1.1926    -0.3111  2360.9376 H        722 DA      0.0000
   1879 P          8.3362     3.2843  2357.8230 P.3      721 DC      0.0000
   1880 OP1        9.6377     3.3675  2358.6033 O.co2    721 DC      0.0000
   1881 OP2        8.0201     4.5198  2357.0974 O.co2    721 DC      0.0000
   1882 O5'        8.1428     1.9749  2356.8471 O.3      721 DC      0.0000
   1883 C5'        8.2406     0.6597  2357.5161 C.3      721 DC      0.0000
   1884 C4'        7.2544    -0.2785  2356.8721 C.3      721 DC      0.0000
   1885 O4'        5.9829    -0.2998  2357.5092 O.3      721 DC      0.0000
   1886 C3'        6.9880     0.0552  2355.3943 C.3      721 DC      0.0000
   1887 O3'        6.7279    -1.0835  2354.5830 O.3      721 DC      0.0000
   1888 C2'        5.6675     0.8766  2355.5599 C.3      721 DC      0.0000
   1889 C1'        4.9994    -0.2308  2356.4555 C.3      721 DC      0.0000
   1890 N1         3.6414     0.1834  2356.6934 N.am     721 DC      0.0000
   1891 C2         2.7018    -0.7840  2357.0106 C.2      721 DC      0.0000
   1892 O2         2.8411    -2.0043  2357.1510 O.2      721 DC      0.0000
   1893 N3         1.4097    -0.3828  2357.2088 N.2      721 DC      0.0000
   1894 C4         1.0318     0.9266  2357.0928 C.2      721 DC      0.0000
   1895 N4        -0.2463     1.2747  2357.3089 N.pl3    721 DC      0.0000
   1896 C5         2.0072     1.9078  2356.7631 C.2      721 DC      0.0000
   1897 C6         3.2641     1.4908  2356.5714 C.2      721 DC      0.0000
   1898 H5'        9.2504     0.2648  2357.4046 H        721 DC      0.0000
   1899 H5''       8.0048     0.7689  2358.5747 H        721 DC      0.0000
   1900 H4'        7.6696    -1.2852  2356.9188 H        721 DC      0.0000
   1901 H3'        7.7866     0.6674  2354.9753 H        721 DC      0.0000
   1902 H2'        5.8091     1.8256  2356.0770 H        721 DC      0.0000
   1903 H2''       5.1451     1.0034  2354.6117 H        721 DC      0.0000
   1904 H1'        4.9940    -1.1748  2355.9106 H        721 DC      0.0000
   1905 H5         1.7431     2.9510  2356.6710 H        721 DC      0.0000
   1906 H6         4.0147     2.2213  2356.3082 H        721 DC      0.0000
   1907 H41       -0.9281     0.5694  2357.5494 H        721 DC      0.0000
   1908 H42       -0.5264     2.2420  2357.2309 H        721 DC      0.0000
   1909 P         -9.1404    -4.1031  2391.1821 P.3      731 DG      0.0000
   1910 OP1      -10.6201    -3.9940  2391.1806 O.co2    731 DG      0.0000
   1911 OP2       -8.6242    -3.1145  2392.2378 O.co2    731 DG      0.0000
   1912 O5'       -8.5273    -5.5605  2391.3605 O.3      731 DG      0.0000
   1913 C5'       -7.9729    -6.4414  2390.3605 C.3      731 DG      0.0000
   1914 C4'       -6.6309    -6.9354  2390.8593 C.3      731 DG      0.0000
   1915 O4'       -5.5703    -6.1043  2390.4402 O.3      731 DG      0.0000
   1916 C3'       -6.4596    -7.1360  2392.3515 C.3      731 DG      0.0000
   1917 O3'       -6.0018    -8.4794  2392.6635 O.3      731 DG      0.0000
   1918 C2'       -5.4822    -6.0555  2392.7734 C.3      731 DG      0.0000
   1919 C1'       -4.6888    -5.7858  2391.5178 C.3      731 DG      0.0000
   1920 N9        -4.2520    -4.3781  2391.4887 N.ar     731 DG      0.0000
   1921 C8        -4.9798    -3.2342  2391.7176 C.ar     731 DG      0.0000
   1922 N7        -4.2798    -2.1259  2391.6279 N.ar     731 DG      0.0000
   1923 C5        -2.9982    -2.5685  2391.3109 C.ar     731 DG      0.0000
   1924 C6        -1.7870    -1.8689  2391.0850 C.2      731 DG      0.0000
   1925 O6        -1.5936    -0.6530  2391.1062 O.2      731 DG      0.0000
   1926 N1        -0.7039    -2.6557  2390.8035 N.am     731 DG      0.0000
   1927 C2        -0.7661    -3.9474  2390.7428 C.2      731 DG      0.0000
   1928 N2         0.3753    -4.4355  2390.4460 N.pl3    731 DG      0.0000
   1929 N3        -1.9092    -4.7257  2390.9515 N.2      731 DG      0.0000
   1930 C4        -2.9665    -3.9477  2391.2241 C.ar     731 DG      0.0000
   1931 H5'       -8.6419    -7.2873  2390.2018 H        731 DG      0.0000
   1932 H5''      -7.8397    -5.8979  2389.4252 H        731 DG      0.0000
   1933 H4'       -6.4659    -7.9074  2390.3946 H        731 DG      0.0000
   1934 H3'       -7.4157    -6.9628  2392.8455 H        731 DG      0.0000
   1935 H2'       -6.0098    -5.1596  2393.1004 H        731 DG      0.0000
   1936 H2''      -4.8284    -6.4220  2393.5649 H        731 DG      0.0000
   1937 H1'       -3.8183    -6.4409  2391.4858 H        731 DG      0.0000
   1938 H8        -6.0343    -3.2457  2391.9507 H        731 DG      0.0000
   1939 H1         0.1856    -2.2080  2390.6351 H        731 DG      0.0000
   1940 H21        1.1647    -3.8222  2390.3017 H        731 DG      0.0000
   1941 H22        0.4892    -5.4349  2390.3556 H        731 DG      0.0000
   1942 P         -5.4682    -8.8881  2394.0921 P.3      732 DT      0.0000
   1943 OP1       -5.8965   -10.2391  2394.6037 O.co2    732 DT      0.0000
   1944 OP2       -6.1798    -7.8783  2395.0107 O.co2    732 DT      0.0000
   1945 O5'       -3.9427    -8.6141  2394.1206 O.3      732 DT      0.0000
   1946 C5'       -2.9446    -9.6617  2393.9767 C.3      732 DT      0.0000
   1947 C4'       -1.6173    -8.9347  2394.0342 C.3      732 DT      0.0000
   1948 O4'       -1.7515    -7.5576  2393.7590 O.3      732 DT      0.0000
   1949 C3'       -0.8778    -8.9918  2395.3469 C.3      732 DT      0.0000
   1950 O3'        0.3436    -9.7217  2395.1587 O.3      732 DT      0.0000
   1951 C2'       -0.6095    -7.5391  2395.7391 C.3      732 DT      0.0000
   1952 C1'       -0.6263    -6.8760  2394.3864 C.3      732 DT      0.0000
   1953 N1        -0.9735    -5.4581  2394.4830 N.am     732 DT      0.0000
   1954 C2         0.0298    -4.5486  2394.2851 C.2      732 DT      0.0000
   1955 O2         1.1876    -4.8847  2394.0469 O.2      732 DT      0.0000
   1956 N3        -0.3047    -3.2237  2394.3661 N.am     732 DT      0.0000
   1957 C4        -1.5623    -2.7975  2394.6221 C.2      732 DT      0.0000
   1958 O4        -1.7168    -1.5490  2394.6673 O.2      732 DT      0.0000
   1959 C5        -2.5999    -3.7639  2394.8218 C.2      732 DT      0.0000
   1960 C7        -4.0035    -3.3346  2395.1017 C.3      732 DT      0.0000
   1961 C6        -2.2636    -5.0576  2394.7403 C.2      732 DT      0.0000
   1962 H5'       -3.0237   -10.3829  2394.7901 H        732 DT      0.0000
   1963 H5''      -3.0592   -10.1628  2393.0155 H        732 DT      0.0000
   1964 H4'       -0.9701    -9.3644  2393.2696 H        732 DT      0.0000
   1965 H3'       -1.4931    -9.4779  2396.1040 H        732 DT      0.0000
   1966 H2'       -1.3929    -7.1473  2396.3879 H        732 DT      0.0000
   1967 H2''       0.3691    -7.4384  2396.2083 H        732 DT      0.0000
   1968 H1'        0.3041    -7.0339  2393.8411 H        732 DT      0.0000
   1969 H3         0.4199    -2.5338  2394.2287 H        732 DT      0.0000
   1970 H6        -3.0276    -5.8080  2394.8806 H        732 DT      0.0000
   1971 H71       -4.6019    -3.4343  2394.1961 H        732 DT      0.0000
   1972 H72       -4.0069    -2.2942  2395.4264 H        732 DT      0.0000
   1973 H73       -4.4255    -3.9618  2395.8870 H        732 DT      0.0000
   1974 P          0.7369   -10.6453  2396.4386 P.3      733 DG      0.0000
   1975 OP1        1.3348   -11.8502  2395.7236 O.co2    733 DG      0.0000
   1976 OP2       -0.4681   -10.9429  2397.1922 O.co2    733 DG      0.0000
   1977 O5'        1.8468    -9.6153  2397.0482 O.3      733 DG      0.0000
   1978 C5'        2.7220    -9.1379  2395.9576 C.3      733 DG      0.0000
   1979 C4'        3.4967    -7.9629  2396.4776 C.3      733 DG      0.0000
   1980 O4'        2.9151    -6.6995  2396.2970 O.3      733 DG      0.0000
   1981 C3'        3.8239    -8.0902  2397.9856 C.3      733 DG      0.0000
   1982 O3'        5.2555    -7.9396  2398.1445 O.3      733 DG      0.0000
   1983 C2'        2.9593    -7.0328  2398.6382 C.3      733 DG      0.0000
   1984 C1'        2.9115    -5.9599  2397.5567 C.3      733 DG      0.0000
   1985 N9         1.7482    -5.0820  2397.7262 N.ar     733 DG      0.0000
   1986 C8         0.4655    -5.4168  2398.0624 C.ar     733 DG      0.0000
   1987 N7        -0.3621    -4.3987  2398.1481 N.ar     733 DG      0.0000
   1988 C5         0.4448    -3.3122  2397.8181 C.ar     733 DG      0.0000
   1989 C6         0.1441    -1.9233  2397.7238 C.2      733 DG      0.0000
   1990 O6        -0.9439    -1.3602  2397.9161 O.2      733 DG      0.0000
   1991 N1         1.2178    -1.1304  2397.3887 N.am     733 DG      0.0000
   1992 C2         2.4558    -1.6510  2397.1650 C.2      733 DG      0.0000
   1993 N2         3.3796    -0.7314  2396.8562 N.pl3    733 DG      0.0000
   1994 N3         2.7855    -2.9386  2397.2360 N.2      733 DG      0.0000
   1995 C4         1.7381    -3.7149  2397.5626 C.ar     733 DG      0.0000
   1996 H5'        3.4069    -9.9307  2395.6571 H        733 DG      0.0000
   1997 H5''       2.1156    -8.8317  2395.1052 H        733 DG      0.0000
   1998 H4'        4.4488    -7.9518  2395.9470 H        733 DG      0.0000
   1999 H3'        3.5215    -9.0755  2398.3404 H        733 DG      0.0000
   2000 H2'        1.9637    -7.4163  2398.8612 H        733 DG      0.0000
   2001 H2''       3.4352    -6.6491  2399.5406 H        733 DG      0.0000
   2002 H1'        3.8188    -5.3588  2397.6156 H        733 DG      0.0000
   2003 H8         0.1570    -6.4359  2398.2430 H        733 DG      0.0000
   2004 H1         1.0835    -0.1327  2397.3064 H        733 DG      0.0000
   2005 H21        3.1237     0.2444  2396.8059 H        733 DG      0.0000
   2006 H22        4.3320    -1.0138  2396.6735 H        733 DG      0.0000
   2007 P          5.9489    -8.1272  2399.5329 P.3      734 DA      0.0000
   2008 OP1        6.3836    -9.5121  2399.8883 O.co2    734 DA      0.0000
   2009 OP2        4.7045    -7.7765  2400.4287 O.co2    734 DA      0.0000
   2010 O5'        6.9501    -6.9229  2399.7820 O.3      734 DA      0.0000
   2011 C5'        7.5398    -6.1148  2398.7530 C.3      734 DA      0.0000
   2012 C4'        7.3765    -4.6798  2399.2273 C.3      734 DA      0.0000
   2013 O4'        6.0249    -4.2829  2399.1369 O.3      734 DA      0.0000
   2014 C3'        7.8318    -4.3837  2400.6564 C.3      734 DA      0.0000
   2015 O3'        8.6460    -3.1941  2400.7086 O.3      734 DA      0.0000
   2016 C2'        6.4951    -4.2276  2401.3918 C.3      734 DA      0.0000
   2017 C1'        5.7098    -3.4955  2400.3142 C.3      734 DA      0.0000
   2018 N9         4.2614    -3.4846  2400.5426 N.ar     734 DA      0.0000
   2019 C8         3.3987    -4.5215  2400.7584 C.ar     734 DA      0.0000
   2020 N7         2.1489    -4.1492  2400.9233 N.ar     734 DA      0.0000
   2021 C5         2.1914    -2.7701  2400.7831 C.ar     734 DA      0.0000
   2022 C6         1.1733    -1.7929  2400.8311 C.ar     734 DA      0.0000
   2023 N6        -0.1168    -2.0569  2401.0509 N.pl3    734 DA      0.0000
   2024 N1         1.5916    -0.5062  2400.6413 N.ar     734 DA      0.0000
   2025 C2         2.8952    -0.2162  2400.4236 C.ar     734 DA      0.0000
   2026 N3         3.9063    -1.0821  2400.3653 N.ar     734 DA      0.0000
   2027 C4         3.4763    -2.3432  2400.5521 C.ar     734 DA      0.0000
   2028 H5'        7.0217    -6.2650  2397.8058 H        734 DA      0.0000
   2029 H5''       8.5971    -6.3567  2398.6452 H        734 DA      0.0000
   2030 H4'        7.9538    -4.0424  2398.5575 H        734 DA      0.0000
   2031 H3'        8.3835    -5.2337  2401.0578 H        734 DA      0.0000
   2032 H2'        6.0496    -5.1916  2401.6373 H        734 DA      0.0000
   2033 H2''       6.6079    -3.6098  2402.2827 H        734 DA      0.0000
   2034 H1'        6.0826    -2.4776  2400.1997 H        734 DA      0.0000
   2035 H8         3.7148    -5.5537  2400.7905 H        734 DA      0.0000
   2036 H2         3.1419     0.8258  2400.2822 H        734 DA      0.0000
   2037 H61       -0.5464    -2.9659  2400.9535 H        734 DA      0.0000
   2038 H62       -0.7917    -1.3253  2400.8794 H        734 DA      0.0000
   2039 P         -4.8394     7.0335  2403.1556 P.3      734 DT      0.0000
   2040 OP1       -5.6873     8.2982  2403.3036 O.co2    734 DT      0.0000
   2041 OP2       -5.6472     5.9590  2402.4857 O.co2    734 DT      0.0000
   2042 O5'       -3.4633     7.3228  2402.5035 O.3      734 DT      0.0000
   2043 C5'       -2.3000     7.6694  2403.2549 C.3      734 DT      0.0000
   2044 C4'       -1.0983     7.1880  2402.5069 C.3      734 DT      0.0000
   2045 O4'       -0.8549     5.8084  2402.4499 O.3      734 DT      0.0000
   2046 C3'       -0.9409     7.6464  2401.0409 C.3      734 DT      0.0000
   2047 O3'        0.4802     7.7766  2400.9371 O.3      734 DT      0.0000
   2048 C2'       -1.4647     6.4229  2400.2771 C.3      734 DT      0.0000
   2049 C1'       -0.6934     5.3748  2401.0529 C.3      734 DT      0.0000
   2050 N1        -1.1957     4.0020  2400.9467 N.am     734 DT      0.0000
   2051 C2        -0.2143     3.0017  2400.9461 C.2      734 DT      0.0000
   2052 O2         0.9844     3.2863  2400.9891 O.2      734 DT      0.0000
   2053 N3        -0.6466     1.7077  2400.8926 N.am     734 DT      0.0000
   2054 C4        -1.9666     1.3725  2400.8329 C.2      734 DT      0.0000
   2055 O4        -2.2664     0.1422  2400.7705 O.2      734 DT      0.0000
   2056 C5        -2.9413     2.4073  2400.8411 C.2      734 DT      0.0000
   2057 C7        -4.4115     2.0492  2400.7797 C.3      734 DT      0.0000
   2058 C6        -2.5139     3.6716  2400.9076 C.2      734 DT      0.0000
   2059 H5'       -2.2489     8.7514  2403.3771 H        734 DT      0.0000
   2060 H5''      -2.3392     7.1910  2404.2335 H        734 DT      0.0000
   2061 H4'       -0.2427     7.6099  2403.0342 H        734 DT      0.0000
   2062 H3'       -1.4800     8.5657  2400.8122 H        734 DT      0.0000
   2063 H2'       -1.1936     6.4433  2399.2216 H        734 DT      0.0000
   2064 H2''      -2.5400     6.3030  2400.4087 H        734 DT      0.0000
   2065 H1'        0.3599     5.4071  2400.7738 H        734 DT      0.0000
   2066 H3         0.0406     0.9676  2400.8975 H        734 DT      0.0000
   2067 H6        -3.2467     4.4646  2400.9313 H        734 DT      0.0000
   2068 H71       -4.5204     0.9658  2400.7309 H        734 DT      0.0000
   2069 H72       -4.8581     2.4994  2399.8931 H        734 DT      0.0000
   2070 H73       -4.9146     2.4251  2401.6706 H        734 DT      0.0000
   2071 P          1.2710     8.4631  2399.7909 P.3      733 DC      0.0000
   2072 OP1        2.2977     9.4197  2400.4000 O.co2    733 DC      0.0000
   2073 OP2        0.2602     9.2419  2399.0090 O.co2    733 DC      0.0000
   2074 O5'        1.9360     7.1726  2399.0515 O.3      733 DC      0.0000
   2075 C5'        3.0476     6.5507  2399.7760 C.3      733 DC      0.0000
   2076 C4'        4.0009     6.0431  2398.7255 C.3      733 DC      0.0000
   2077 O4'        3.8402     4.6653  2398.4802 O.3      733 DC      0.0000
   2078 C3'        3.8917     6.7258  2397.3610 C.3      733 DC      0.0000
   2079 O3'        5.1271     6.8416  2396.6518 O.3      733 DC      0.0000
   2080 C2'        2.8542     5.8265  2396.6749 C.3      733 DC      0.0000
   2081 C1'        3.2045     4.4439  2397.2215 C.3      733 DC      0.0000
   2082 N1         1.9476     3.6678  2397.3393 N.am     733 DC      0.0000
   2083 C2         2.0602     2.2783  2397.3566 C.2      733 DC      0.0000
   2084 O2         3.1661     1.7245  2397.2879 O.2      733 DC      0.0000
   2085 N3         0.9014     1.5572  2397.4598 N.2      733 DC      0.0000
   2086 C4        -0.3170     2.1543  2397.5305 C.2      733 DC      0.0000
   2087 N4        -1.4188     1.4076  2397.6325 N.pl3    733 DC      0.0000
   2088 C5        -0.4038     3.5743  2397.5054 C.2      733 DC      0.0000
   2089 C6         0.7350     4.2818  2397.4118 C.2      733 DC      0.0000
   2090 H5'        3.5421     7.2850  2400.4120 H        733 DC      0.0000
   2091 H5''       2.6813     5.7204  2400.3799 H        733 DC      0.0000
   2092 H4'        5.0147     6.1986  2399.0942 H        733 DC      0.0000
   2093 H3'        3.4655     7.7200  2397.4952 H        733 DC      0.0000
   2094 H2'        2.9595     5.8599  2395.5905 H        733 DC      0.0000
   2095 H2''       1.8445     6.1112  2396.9709 H        733 DC      0.0000
   2096 H1'        3.8910     3.9386  2396.5421 H        733 DC      0.0000
   2097 H5        -1.3612     4.0712  2397.5602 H        733 DC      0.0000
   2098 H6         0.6870     5.3607  2397.3937 H        733 DC      0.0000
   2099 H41       -1.3461     0.4005  2397.6532 H        733 DC      0.0000
   2100 H42       -2.3251     1.8498  2397.6888 H        733 DC      0.0000
   2101 P          5.3194     6.7085  2395.0198 P.3      732 DA      0.0000
   2102 OP1        6.5885     7.4352  2394.6303 O.co2    732 DA      0.0000
   2103 OP2        4.0706     7.2831  2394.4497 O.co2    732 DA      0.0000
   2104 O5'        5.5730     5.1411  2394.8542 O.3      732 DA      0.0000
   2105 C5'        6.8688     4.5971  2395.3197 C.3      732 DA      0.0000
   2106 C4'        7.0212     3.3661  2394.4424 C.3      732 DA      0.0000
   2107 O4'        5.9551     2.4461  2394.7097 O.3      732 DA      0.0000
   2108 C3'        6.9040     3.6692  2392.9380 C.3      732 DA      0.0000
   2109 O3'        7.4141     2.6063  2392.1489 O.3      732 DA      0.0000
   2110 C2'        5.3766     3.6168  2392.7505 C.3      732 DA      0.0000
   2111 C1'        5.1970     2.2711  2393.5052 C.3      732 DA      0.0000
   2112 N9         3.7525     2.1240  2393.6506 N.ar     732 DA      0.0000
   2113 C8         2.8291     3.1428  2393.7234 C.ar     732 DA      0.0000
   2114 N7         1.5955     2.7189  2393.8381 N.ar     732 DA      0.0000
   2115 C5         1.7264     1.3186  2393.8317 C.ar     732 DA      0.0000
   2116 C6         0.7489     0.2907  2393.9316 C.ar     732 DA      0.0000
   2117 N6        -0.5616     0.5208  2394.0545 N.pl3    732 DA      0.0000
   2118 N1         1.2557    -0.9734  2393.8965 N.ar     732 DA      0.0000
   2119 C2         2.5856    -1.2074  2393.7776 C.ar     732 DA      0.0000
   2120 N3         3.5556    -0.2930  2393.6861 N.ar     732 DA      0.0000
   2121 C4         3.0437     0.9499  2393.7137 C.ar     732 DA      0.0000
   2122 H5'        7.6798     5.3060  2395.1529 H        732 DA      0.0000
   2123 H5''       6.8131     4.3160  2396.3713 H        732 DA      0.0000
   2124 H4'        7.9787     2.8869  2394.6463 H        732 DA      0.0000
   2125 H3'        7.3289     4.6360  2392.6683 H        732 DA      0.0000
   2126 H2'        4.8599     4.4469  2393.2321 H        732 DA      0.0000
   2127 H2''       5.1029     3.5282  2391.6991 H        732 DA      0.0000
   2128 H1'        5.6046     1.4491  2392.9168 H        732 DA      0.0000
   2129 H8         3.0961     4.1888  2393.6894 H        732 DA      0.0000
   2130 H2         2.8936    -2.2422  2393.7544 H        732 DA      0.0000
   2131 H61       -0.9076     1.4693  2394.0792 H        732 DA      0.0000
   2132 H62       -1.2061    -0.2538  2394.1226 H        732 DA      0.0000
   2133 P          8.4834     2.8829  2391.0080 P.3      731 DC      0.0000
   2134 OP1        9.7874     2.9039  2391.7883 O.co2    731 DC      0.0000
   2135 OP2        8.2266     4.1320  2390.2824 O.co2    731 DC      0.0000
   2136 O5'        8.2278     1.5841  2390.0321 O.3      731 DC      0.0000
   2137 C5'        8.2627     0.2658  2390.7012 C.3      731 DC      0.0000
   2138 C4'        7.2328    -0.6243  2390.0571 C.3      731 DC      0.0000
   2139 O4'        5.9617    -0.5849  2390.6943 O.3      731 DC      0.0000
   2140 C3'        6.9827    -0.2783  2388.5793 C.3      731 DC      0.0000
   2141 O3'        6.6686    -1.4033  2387.7680 O.3      731 DC      0.0000
   2142 C2'        5.7029     0.6052  2388.7450 C.3      731 DC      0.0000
   2143 C1'        4.9827    -0.4691  2389.6405 C.3      731 DC      0.0000
   2144 N1         3.6460     0.0095  2389.8784 N.am     731 DC      0.0000
   2145 C2         2.6613    -0.9120  2390.1956 C.2      731 DC      0.0000
   2146 O2         2.7422    -2.1375  2390.3360 O.2      731 DC      0.0000
   2147 N3         1.3899    -0.4496  2390.3938 N.2      731 DC      0.0000
   2148 C4         1.0749     0.8763  2390.2778 C.2      731 DC      0.0000
   2149 N4        -0.1852     1.2850  2390.4939 N.pl3    731 DC      0.0000
   2150 C5         2.0959     1.8099  2389.9482 C.2      731 DC      0.0000
   2151 C6         3.3315     1.3334  2389.7565 C.2      731 DC      0.0000
   2152 H5'        9.2525    -0.1769  2390.5897 H        731 DC      0.0000
   2153 H5''       8.0323     0.3861  2391.7598 H        731 DC      0.0000
   2154 H4'        7.5996    -1.6497  2390.1039 H        731 DC      0.0000
   2155 H3'        7.8095     0.2951  2388.1603 H        731 DC      0.0000
   2156 H2'        5.8895     1.5464  2389.2621 H        731 DC      0.0000
   2157 H2''       5.1871     0.7568  2387.7967 H        731 DC      0.0000
   2158 H1'        4.9322    -1.4118  2389.0956 H        731 DC      0.0000
   2159 H5         1.8819     2.8645  2389.8560 H        731 DC      0.0000
   2160 H6         4.1162     2.0272  2389.4932 H        731 DC      0.0000
   2161 H41       -0.8998     0.6130  2390.7344 H        731 DC      0.0000
   2162 H42       -0.4188     2.2645  2390.4160 H        731 DC      0.0000
@<TRIPOS>BOND
     1      9     34 1
     2     42     66 1
     3     74     99 1
     4    107    131 1
     5    139    163 1
     6    171    195 1
     7    203    227 1
     8    235    257 1
     9    265    289 1
    10    327    352 1
    11    360    384 1
    12    392    417 1
    13    425    449 1
    14    457    481 1
    15    489    513 1
    16    521    545 1
    17    553    575 1
    18    583    607 1
    19      1      2 1
    20      1      3 1
    21      1      4 1
    22      4      5 1
    23      5      6 1
    24      6      7 1
    25      6      8 1
    26      7     11 1
    27      8      9 1
    28      8     10 1
    29     10     11 1
    30     11     12 1
    31     12     13 ar
    32     12     22 ar
    33     13     14 ar
    34     14     15 ar
    35     15     16 1
    36     15     22 ar
    37     16     17 2
    38     16     18 am
    39     18     19 1
    40     19     20 2
    41     19     21 2
    42     21     22 1
    43     34     35 1
    44     34     36 1
    45     34     37 1
    46     37     38 1
    47     38     39 1
    48     39     40 1
    49     39     41 1
    50     40     44 1
    51     41     42 1
    52     41     43 1
    53     43     44 1
    54     44     45 1
    55     45     46 am
    56     45     53 1
    57     46     47 2
    58     46     48 am
    59     48     49 am
    60     49     50 2
    61     49     51 1
    62     51     52 1
    63     51     53 2
    64     66     67 1
    65     66     68 1
    66     66     69 1
    67     69     70 1
    68     70     71 1
    69     71     72 1
    70     71     73 1
    71     72     76 1
    72     73     74 1
    73     73     75 1
    74     75     76 1
    75     76     77 1
    76     77     78 ar
    77     77     87 ar
    78     78     79 ar
    79     79     80 ar
    80     80     81 1
    81     80     87 ar
    82     81     82 2
    83     81     83 am
    84     83     84 1
    85     84     85 2
    86     84     86 2
    87     86     87 1
    88     99    100 1
    89     99    101 1
    90     99    102 1
    91    102    103 1
    92    103    104 1
    93    104    105 1
    94    104    106 1
    95    105    109 1
    96    106    107 1
    97    106    108 1
    98    108    109 1
    99    109    110 1
   100    110    111 ar
   101    110    119 ar
   102    111    112 ar
   103    112    113 ar
   104    113    114 ar
   105    113    119 ar
   106    114    115 1
   107    114    116 ar
   108    116    117 ar
   109    117    118 ar
   110    118    119 ar
   111    131    132 1
   112    131    133 1
   113    131    134 1
   114    134    135 1
   115    135    136 1
   116    136    137 1
   117    136    138 1
   118    137    141 1
   119    138    139 1
   120    138    140 1
   121    140    141 1
   122    141    142 1
   123    142    143 ar
   124    142    151 ar
   125    143    144 ar
   126    144    145 ar
   127    145    146 ar
   128    145    151 ar
   129    146    147 1
   130    146    148 ar
   131    148    149 ar
   132    149    150 ar
   133    150    151 ar
   134    163    164 1
   135    163    165 1
   136    163    166 1
   137    166    167 1
   138    167    168 1
   139    168    169 1
   140    168    170 1
   141    169    173 1
   142    170    171 1
   143    170    172 1
   144    172    173 1
   145    173    174 1
   146    174    175 am
   147    174    182 1
   148    175    176 2
   149    175    177 am
   150    177    178 am
   151    178    179 2
   152    178    180 1
   153    180    181 1
   154    180    182 2
   155    195    196 1
   156    195    197 1
   157    195    198 1
   158    198    199 1
   159    199    200 1
   160    200    201 1
   161    200    202 1
   162    201    205 1
   163    202    203 1
   164    202    204 1
   165    204    205 1
   166    205    206 1
   167    206    207 am
   168    206    214 1
   169    207    208 2
   170    207    209 am
   171    209    210 am
   172    210    211 2
   173    210    212 1
   174    212    213 1
   175    212    214 2
   176    227    228 1
   177    227    229 1
   178    227    230 1
   179    230    231 1
   180    231    232 1
   181    232    233 1
   182    232    234 1
   183    233    237 1
   184    234    235 1
   185    234    236 1
   186    236    237 1
   187    237    238 1
   188    238    239 am
   189    238    245 1
   190    239    240 2
   191    239    241 1
   192    241    242 2
   193    242    243 2
   194    242    244 2
   195    244    245 2
   196    257    258 1
   197    257    259 1
   198    257    260 1
   199    260    261 1
   200    261    262 1
   201    262    263 1
   202    262    264 1
   203    263    267 1
   204    264    265 1
   205    264    266 1
   206    266    267 1
   207    267    268 1
   208    268    269 ar
   209    268    277 ar
   210    269    270 ar
   211    270    271 ar
   212    271    272 ar
   213    271    277 ar
   214    272    273 1
   215    272    274 ar
   216    274    275 ar
   217    275    276 ar
   218    276    277 ar
   219    289    290 1
   220    289    291 1
   221    289    292 1
   222    292    293 1
   223    293    294 1
   224    294    295 1
   225    294    296 1
   226    295    299 1
   227    296    297 1
   228    296    298 1
   229    298    299 1
   230    299    300 1
   231    300    301 am
   232    300    307 1
   233    301    302 2
   234    301    303 1
   235    303    304 2
   236    304    305 2
   237    304    306 2
   238    306    307 2
   239    319    320 1
   240    319    321 1
   241    319    322 1
   242    322    323 1
   243    323    324 1
   244    324    325 1
   245    324    326 1
   246    325    329 1
   247    326    327 1
   248    326    328 1
   249    328    329 1
   250    329    330 1
   251    330    331 ar
   252    330    340 ar
   253    331    332 ar
   254    332    333 ar
   255    333    334 1
   256    333    340 ar
   257    334    335 2
   258    334    336 am
   259    336    337 1
   260    337    338 2
   261    337    339 2
   262    339    340 1
   263    352    353 1
   264    352    354 1
   265    352    355 1
   266    355    356 1
   267    356    357 1
   268    357    358 1
   269    357    359 1
   270    358    362 1
   271    359    360 1
   272    359    361 1
   273    361    362 1
   274    362    363 1
   275    363    364 am
   276    363    371 1
   277    364    365 2
   278    364    366 am
   279    366    367 am
   280    367    368 2
   281    367    369 1
   282    369    370 1
   283    369    371 2
   284    384    385 1
   285    384    386 1
   286    384    387 1
   287    387    388 1
   288    388    389 1
   289    389    390 1
   290    389    391 1
   291    390    394 1
   292    391    392 1
   293    391    393 1
   294    393    394 1
   295    394    395 1
   296    395    396 ar
   297    395    405 ar
   298    396    397 ar
   299    397    398 ar
   300    398    399 1
   301    398    405 ar
   302    399    400 2
   303    399    401 am
   304    401    402 1
   305    402    403 2
   306    402    404 2
   307    404    405 1
   308    417    418 1
   309    417    419 1
   310    417    420 1
   311    420    421 1
   312    421    422 1
   313    422    423 1
   314    422    424 1
   315    423    427 1
   316    424    425 1
   317    424    426 1
   318    426    427 1
   319    427    428 1
   320    428    429 ar
   321    428    437 ar
   322    429    430 ar
   323    430    431 ar
   324    431    432 ar
   325    431    437 ar
   326    432    433 1
   327    432    434 ar
   328    434    435 ar
   329    435    436 ar
   330    436    437 ar
   331    449    450 1
   332    449    451 1
   333    449    452 1
   334    452    453 1
   335    453    454 1
   336    454    455 1
   337    454    456 1
   338    455    459 1
   339    456    457 1
   340    456    458 1
   341    458    459 1
   342    459    460 1
   343    460    461 ar
   344    460    469 ar
   345    461    462 ar
   346    462    463 ar
   347    463    464 ar
   348    463    469 ar
   349    464    465 1
   350    464    466 ar
   351    466    467 ar
   352    467    468 ar
   353    468    469 ar
   354    481    482 1
   355    481    483 1
   356    481    484 1
   357    484    485 1
   358    485    486 1
   359    486    487 1
   360    486    488 1
   361    487    491 1
   362    488    489 1
   363    488    490 1
   364    490    491 1
   365    491    492 1
   366    492    493 am
   367    492    500 1
   368    493    494 2
   369    493    495 am
   370    495    496 am
   371    496    497 2
   372    496    498 1
   373    498    499 1
   374    498    500 2
   375    513    514 1
   376    513    515 1
   377    513    516 1
   378    516    517 1
   379    517    518 1
   380    518    519 1
   381    518    520 1
   382    519    523 1
   383    520    521 1
   384    520    522 1
   385    522    523 1
   386    523    524 1
   387    524    525 am
   388    524    532 1
   389    525    526 2
   390    525    527 am
   391    527    528 am
   392    528    529 2
   393    528    530 1
   394    530    531 1
   395    530    532 2
   396    545    546 1
   397    545    547 1
   398    545    548 1
   399    548    549 1
   400    549    550 1
   401    550    551 1
   402    550    552 1
   403    551    555 1
   404    552    553 1
   405    552    554 1
   406    554    555 1
   407    555    556 1
   408    556    557 am
   409    556    563 1
   410    557    558 2
   411    557    559 1
   412    559    560 2
   413    560    561 2
   414    560    562 2
   415    562    563 2
   416    575    576 1
   417    575    577 1
   418    575    578 1
   419    578    579 1
   420    579    580 1
   421    580    581 1
   422    580    582 1
   423    581    585 1
   424    582    583 1
   425    582    584 1
   426    584    585 1
   427    585    586 1
   428    586    587 ar
   429    586    595 ar
   430    587    588 ar
   431    588    589 ar
   432    589    590 ar
   433    589    595 ar
   434    590    591 1
   435    590    592 ar
   436    592    593 ar
   437    593    594 ar
   438    594    595 ar
   439    607    608 1
   440    607    609 1
   441    607    610 1
   442    610    611 1
   443    611    612 1
   444    612    613 1
   445    612    614 1
   446    613    617 1
   447    614    615 1
   448    614    616 1
   449    616    617 1
   450    617    618 1
   451    618    619 am
   452    618    625 1
   453    619    620 2
   454    619    621 1
   455    621    622 2
   456    622    623 2
   457    622    624 2
   458    624    625 2
   459     23      5 1
   460     24      5 1
   461     25      6 1
   462     26      8 1
   463     27     10 1
   464     28     10 1
   465     29     11 1
   466     30     13 1
   467     31     18 1
   468     54     38 1
   469     55     38 1
   470     56     39 1
   471     57     41 1
   472     58     43 1
   473     59     43 1
   474     60     44 1
   475     61     48 1
   476     62     53 1
   477     88     70 1
   478     89     70 1
   479     90     71 1
   480     91     73 1
   481     92     75 1
   482     93     75 1
   483     94     76 1
   484     95     78 1
   485     96     83 1
   486    120    103 1
   487    121    103 1
   488    122    104 1
   489    123    106 1
   490    124    108 1
   491    125    108 1
   492    126    109 1
   493    127    111 1
   494    128    117 1
   495    152    135 1
   496    153    135 1
   497    154    136 1
   498    155    138 1
   499    156    140 1
   500    157    140 1
   501    158    141 1
   502    159    143 1
   503    160    149 1
   504    183    167 1
   505    184    167 1
   506    185    168 1
   507    186    170 1
   508    187    172 1
   509    188    172 1
   510    189    173 1
   511    190    177 1
   512    191    182 1
   513    215    199 1
   514    216    199 1
   515    217    200 1
   516    218    202 1
   517    219    204 1
   518    220    204 1
   519    221    205 1
   520    222    209 1
   521    223    214 1
   522    246    231 1
   523    247    231 1
   524    248    232 1
   525    249    234 1
   526    250    236 1
   527    251    236 1
   528    252    237 1
   529    253    244 1
   530    254    245 1
   531    278    261 1
   532    279    261 1
   533    280    262 1
   534    281    264 1
   535    282    266 1
   536    283    266 1
   537    284    267 1
   538    285    269 1
   539    286    275 1
   540    308    293 1
   541    309    293 1
   542    310    294 1
   543    311    296 1
   544    312    298 1
   545    313    298 1
   546    314    299 1
   547    315    306 1
   548    316    307 1
   549    341    323 1
   550    342    323 1
   551    343    324 1
   552    344    326 1
   553    345    328 1
   554    346    328 1
   555    347    329 1
   556    348    331 1
   557    349    336 1
   558    372    356 1
   559    373    356 1
   560    374    357 1
   561    375    359 1
   562    376    361 1
   563    377    361 1
   564    378    362 1
   565    379    366 1
   566    380    371 1
   567    406    388 1
   568    407    388 1
   569    408    389 1
   570    409    391 1
   571    410    393 1
   572    411    393 1
   573    412    394 1
   574    413    396 1
   575    414    401 1
   576    438    421 1
   577    439    421 1
   578    440    422 1
   579    441    424 1
   580    442    426 1
   581    443    426 1
   582    444    427 1
   583    445    429 1
   584    446    435 1
   585    470    453 1
   586    471    453 1
   587    472    454 1
   588    473    456 1
   589    474    458 1
   590    475    458 1
   591    476    459 1
   592    477    461 1
   593    478    467 1
   594    501    485 1
   595    502    485 1
   596    503    486 1
   597    504    488 1
   598    505    490 1
   599    506    490 1
   600    507    491 1
   601    508    495 1
   602    509    500 1
   603    533    517 1
   604    534    517 1
   605    535    518 1
   606    536    520 1
   607    537    522 1
   608    538    522 1
   609    539    523 1
   610    540    527 1
   611    541    532 1
   612    564    549 1
   613    565    549 1
   614    566    550 1
   615    567    552 1
   616    568    554 1
   617    569    554 1
   618    570    555 1
   619    571    562 1
   620    572    563 1
   621    596    579 1
   622    597    579 1
   623    598    580 1
   624    599    582 1
   625    600    584 1
   626    601    584 1
   627    602    585 1
   628    603    587 1
   629    604    593 1
   630    626    611 1
   631    627    611 1
   632    628    612 1
   633    629    614 1
   634    630    616 1
   635    631    616 1
   636    632    617 1
   637    633    624 1
   638    634    625 1
   639     32     20 1
   640     33     20 1
   641     97     85 1
   642     98     85 1
   643    255    243 1
   644    256    243 1
   645    317    305 1
   646    318    305 1
   647    350    338 1
   648    351    338 1
   649    415    403 1
   650    416    403 1
   651    573    561 1
   652    574    561 1
   653    635    623 1
   654    636    623 1
   655    129    115 1
   656    130    115 1
   657    161    147 1
   658    162    147 1
   659    287    273 1
   660    288    273 1
   661    447    433 1
   662    448    433 1
   663    479    465 1
   664    480    465 1
   665    605    591 1
   666    606    591 1
   667     63     52 1
   668     64     52 1
   669     65     52 1
   670    192    181 1
   671    193    181 1
   672    194    181 1
   673    224    213 1
   674    225    213 1
   675    226    213 1
   676    381    370 1
   677    382    370 1
   678    383    370 1
   679    510    499 1
   680    511    499 1
   681    512    499 1
   682    542    531 1
   683    543    531 1
   684    544    531 1
   685    297    637 1
   686    319   1251 1
   687    645    670 1
   688    678    702 1
   689    710    735 1
   690    743    767 1
   691    775    799 1
   692    807    831 1
   693    839    863 1
   694    871    893 1
   695    901    925 1
   696    963    988 1
   697    996   1020 1
   698   1028   1053 1
   699   1061   1085 1
   700   1093   1117 1
   701   1125   1149 1
   702   1157   1181 1
   703   1189   1211 1
   704   1219   1243 1
   705    637    638 1
   706    637    639 1
   707    637    640 1
   708    640    641 1
   709    641    642 1
   710    642    643 1
   711    642    644 1
   712    643    647 1
   713    644    645 1
   714    644    646 1
   715    646    647 1
   716    647    648 1
   717    648    649 ar
   718    648    658 ar
   719    649    650 ar
   720    650    651 ar
   721    651    652 1
   722    651    658 ar
   723    652    653 2
   724    652    654 am
   725    654    655 1
   726    655    656 2
   727    655    657 2
   728    657    658 1
   729    670    671 1
   730    670    672 1
   731    670    673 1
   732    673    674 1
   733    674    675 1
   734    675    676 1
   735    675    677 1
   736    676    680 1
   737    677    678 1
   738    677    679 1
   739    679    680 1
   740    680    681 1
   741    681    682 am
   742    681    689 1
   743    682    683 2
   744    682    684 am
   745    684    685 am
   746    685    686 2
   747    685    687 1
   748    687    688 1
   749    687    689 2
   750    702    703 1
   751    702    704 1
   752    702    705 1
   753    705    706 1
   754    706    707 1
   755    707    708 1
   756    707    709 1
   757    708    712 1
   758    709    710 1
   759    709    711 1
   760    711    712 1
   761    712    713 1
   762    713    714 ar
   763    713    723 ar
   764    714    715 ar
   765    715    716 ar
   766    716    717 1
   767    716    723 ar
   768    717    718 2
   769    717    719 am
   770    719    720 1
   771    720    721 2
   772    720    722 2
   773    722    723 1
   774    735    736 1
   775    735    737 1
   776    735    738 1
   777    738    739 1
   778    739    740 1
   779    740    741 1
   780    740    742 1
   781    741    745 1
   782    742    743 1
   783    742    744 1
   784    744    745 1
   785    745    746 1
   786    746    747 ar
   787    746    755 ar
   788    747    748 ar
   789    748    749 ar
   790    749    750 ar
   791    749    755 ar
   792    750    751 1
   793    750    752 ar
   794    752    753 ar
   795    753    754 ar
   796    754    755 ar
   797    767    768 1
   798    767    769 1
   799    767    770 1
   800    770    771 1
   801    771    772 1
   802    772    773 1
   803    772    774 1
   804    773    777 1
   805    774    775 1
   806    774    776 1
   807    776    777 1
   808    777    778 1
   809    778    779 ar
   810    778    787 ar
   811    779    780 ar
   812    780    781 ar
   813    781    782 ar
   814    781    787 ar
   815    782    783 1
   816    782    784 ar
   817    784    785 ar
   818    785    786 ar
   819    786    787 ar
   820    799    800 1
   821    799    801 1
   822    799    802 1
   823    802    803 1
   824    803    804 1
   825    804    805 1
   826    804    806 1
   827    805    809 1
   828    806    807 1
   829    806    808 1
   830    808    809 1
   831    809    810 1
   832    810    811 am
   833    810    818 1
   834    811    812 2
   835    811    813 am
   836    813    814 am
   837    814    815 2
   838    814    816 1
   839    816    817 1
   840    816    818 2
   841    831    832 1
   842    831    833 1
   843    831    834 1
   844    834    835 1
   845    835    836 1
   846    836    837 1
   847    836    838 1
   848    837    841 1
   849    838    839 1
   850    838    840 1
   851    840    841 1
   852    841    842 1
   853    842    843 am
   854    842    850 1
   855    843    844 2
   856    843    845 am
   857    845    846 am
   858    846    847 2
   859    846    848 1
   860    848    849 1
   861    848    850 2
   862    863    864 1
   863    863    865 1
   864    863    866 1
   865    866    867 1
   866    867    868 1
   867    868    869 1
   868    868    870 1
   869    869    873 1
   870    870    871 1
   871    870    872 1
   872    872    873 1
   873    873    874 1
   874    874    875 am
   875    874    881 1
   876    875    876 2
   877    875    877 1
   878    877    878 2
   879    878    879 2
   880    878    880 2
   881    880    881 2
   882    893    894 1
   883    893    895 1
   884    893    896 1
   885    896    897 1
   886    897    898 1
   887    898    899 1
   888    898    900 1
   889    899    903 1
   890    900    901 1
   891    900    902 1
   892    902    903 1
   893    903    904 1
   894    904    905 ar
   895    904    913 ar
   896    905    906 ar
   897    906    907 ar
   898    907    908 ar
   899    907    913 ar
   900    908    909 1
   901    908    910 ar
   902    910    911 ar
   903    911    912 ar
   904    912    913 ar
   905    925    926 1
   906    925    927 1
   907    925    928 1
   908    928    929 1
   909    929    930 1
   910    930    931 1
   911    930    932 1
   912    931    935 1
   913    932    933 1
   914    932    934 1
   915    934    935 1
   916    935    936 1
   917    936    937 am
   918    936    943 1
   919    937    938 2
   920    937    939 1
   921    939    940 2
   922    940    941 2
   923    940    942 2
   924    942    943 2
   925    955    956 1
   926    955    957 1
   927    955    958 1
   928    958    959 1
   929    959    960 1
   930    960    961 1
   931    960    962 1
   932    961    965 1
   933    962    963 1
   934    962    964 1
   935    964    965 1
   936    965    966 1
   937    966    967 ar
   938    966    976 ar
   939    967    968 ar
   940    968    969 ar
   941    969    970 1
   942    969    976 ar
   943    970    971 2
   944    970    972 am
   945    972    973 1
   946    973    974 2
   947    973    975 2
   948    975    976 1
   949    988    989 1
   950    988    990 1
   951    988    991 1
   952    991    992 1
   953    992    993 1
   954    993    994 1
   955    993    995 1
   956    994    998 1
   957    995    996 1
   958    995    997 1
   959    997    998 1
   960    998    999 1
   961    999   1000 am
   962    999   1007 1
   963   1000   1001 2
   964   1000   1002 am
   965   1002   1003 am
   966   1003   1004 2
   967   1003   1005 1
   968   1005   1006 1
   969   1005   1007 2
   970   1020   1021 1
   971   1020   1022 1
   972   1020   1023 1
   973   1023   1024 1
   974   1024   1025 1
   975   1025   1026 1
   976   1025   1027 1
   977   1026   1030 1
   978   1027   1028 1
   979   1027   1029 1
   980   1029   1030 1
   981   1030   1031 1
   982   1031   1032 ar
   983   1031   1041 ar
   984   1032   1033 ar
   985   1033   1034 ar
   986   1034   1035 1
   987   1034   1041 ar
   988   1035   1036 2
   989   1035   1037 am
   990   1037   1038 1
   991   1038   1039 2
   992   1038   1040 2
   993   1040   1041 1
   994   1053   1054 1
   995   1053   1055 1
   996   1053   1056 1
   997   1056   1057 1
   998   1057   1058 1
   999   1058   1059 1
  1000   1058   1060 1
  1001   1059   1063 1
  1002   1060   1061 1
  1003   1060   1062 1
  1004   1062   1063 1
  1005   1063   1064 1
  1006   1064   1065 ar
  1007   1064   1073 ar
  1008   1065   1066 ar
  1009   1066   1067 ar
  1010   1067   1068 ar
  1011   1067   1073 ar
  1012   1068   1069 1
  1013   1068   1070 ar
  1014   1070   1071 ar
  1015   1071   1072 ar
  1016   1072   1073 ar
  1017   1085   1086 1
  1018   1085   1087 1
  1019   1085   1088 1
  1020   1088   1089 1
  1021   1089   1090 1
  1022   1090   1091 1
  1023   1090   1092 1
  1024   1091   1095 1
  1025   1092   1093 1
  1026   1092   1094 1
  1027   1094   1095 1
  1028   1095   1096 1
  1029   1096   1097 ar
  1030   1096   1105 ar
  1031   1097   1098 ar
  1032   1098   1099 ar
  1033   1099   1100 ar
  1034   1099   1105 ar
  1035   1100   1101 1
  1036   1100   1102 ar
  1037   1102   1103 ar
  1038   1103   1104 ar
  1039   1104   1105 ar
  1040   1117   1118 1
  1041   1117   1119 1
  1042   1117   1120 1
  1043   1120   1121 1
  1044   1121   1122 1
  1045   1122   1123 1
  1046   1122   1124 1
  1047   1123   1127 1
  1048   1124   1125 1
  1049   1124   1126 1
  1050   1126   1127 1
  1051   1127   1128 1
  1052   1128   1129 am
  1053   1128   1136 1
  1054   1129   1130 2
  1055   1129   1131 am
  1056   1131   1132 am
  1057   1132   1133 2
  1058   1132   1134 1
  1059   1134   1135 1
  1060   1134   1136 2
  1061   1149   1150 1
  1062   1149   1151 1
  1063   1149   1152 1
  1064   1152   1153 1
  1065   1153   1154 1
  1066   1154   1155 1
  1067   1154   1156 1
  1068   1155   1159 1
  1069   1156   1157 1
  1070   1156   1158 1
  1071   1158   1159 1
  1072   1159   1160 1
  1073   1160   1161 am
  1074   1160   1168 1
  1075   1161   1162 2
  1076   1161   1163 am
  1077   1163   1164 am
  1078   1164   1165 2
  1079   1164   1166 1
  1080   1166   1167 1
  1081   1166   1168 2
  1082   1181   1182 1
  1083   1181   1183 1
  1084   1181   1184 1
  1085   1184   1185 1
  1086   1185   1186 1
  1087   1186   1187 1
  1088   1186   1188 1
  1089   1187   1191 1
  1090   1188   1189 1
  1091   1188   1190 1
  1092   1190   1191 1
  1093   1191   1192 1
  1094   1192   1193 am
  1095   1192   1199 1
  1096   1193   1194 2
  1097   1193   1195 1
  1098   1195   1196 2
  1099   1196   1197 2
  1100   1196   1198 2
  1101   1198   1199 2
  1102   1211   1212 1
  1103   1211   1213 1
  1104   1211   1214 1
  1105   1214   1215 1
  1106   1215   1216 1
  1107   1216   1217 1
  1108   1216   1218 1
  1109   1217   1221 1
  1110   1218   1219 1
  1111   1218   1220 1
  1112   1220   1221 1
  1113   1221   1222 1
  1114   1222   1223 ar
  1115   1222   1231 ar
  1116   1223   1224 ar
  1117   1224   1225 ar
  1118   1225   1226 ar
  1119   1225   1231 ar
  1120   1226   1227 1
  1121   1226   1228 ar
  1122   1228   1229 ar
  1123   1229   1230 ar
  1124   1230   1231 ar
  1125   1243   1244 1
  1126   1243   1245 1
  1127   1243   1246 1
  1128   1246   1247 1
  1129   1247   1248 1
  1130   1248   1249 1
  1131   1248   1250 1
  1132   1249   1253 1
  1133   1250   1251 1
  1134   1250   1252 1
  1135   1252   1253 1
  1136   1253   1254 1
  1137   1254   1255 am
  1138   1254   1261 1
  1139   1255   1256 2
  1140   1255   1257 1
  1141   1257   1258 2
  1142   1258   1259 2
  1143   1258   1260 2
  1144   1260   1261 2
  1145    659    641 1
  1146    660    641 1
  1147    661    642 1
  1148    662    644 1
  1149    663    646 1
  1150    664    646 1
  1151    665    647 1
  1152    666    649 1
  1153    667    654 1
  1154    690    674 1
  1155    691    674 1
  1156    692    675 1
  1157    693    677 1
  1158    694    679 1
  1159    695    679 1
  1160    696    680 1
  1161    697    684 1
  1162    698    689 1
  1163    724    706 1
  1164    725    706 1
  1165    726    707 1
  1166    727    709 1
  1167    728    711 1
  1168    729    711 1
  1169    730    712 1
  1170    731    714 1
  1171    732    719 1
  1172    756    739 1
  1173    757    739 1
  1174    758    740 1
  1175    759    742 1
  1176    760    744 1
  1177    761    744 1
  1178    762    745 1
  1179    763    747 1
  1180    764    753 1
  1181    788    771 1
  1182    789    771 1
  1183    790    772 1
  1184    791    774 1
  1185    792    776 1
  1186    793    776 1
  1187    794    777 1
  1188    795    779 1
  1189    796    785 1
  1190    819    803 1
  1191    820    803 1
  1192    821    804 1
  1193    822    806 1
  1194    823    808 1
  1195    824    808 1
  1196    825    809 1
  1197    826    813 1
  1198    827    818 1
  1199    851    835 1
  1200    852    835 1
  1201    853    836 1
  1202    854    838 1
  1203    855    840 1
  1204    856    840 1
  1205    857    841 1
  1206    858    845 1
  1207    859    850 1
  1208    882    867 1
  1209    883    867 1
  1210    884    868 1
  1211    885    870 1
  1212    886    872 1
  1213    887    872 1
  1214    888    873 1
  1215    889    880 1
  1216    890    881 1
  1217    914    897 1
  1218    915    897 1
  1219    916    898 1
  1220    917    900 1
  1221    918    902 1
  1222    919    902 1
  1223    920    903 1
  1224    921    905 1
  1225    922    911 1
  1226    944    929 1
  1227    945    929 1
  1228    946    930 1
  1229    947    932 1
  1230    948    934 1
  1231    949    934 1
  1232    950    935 1
  1233    951    942 1
  1234    952    943 1
  1235    977    959 1
  1236    978    959 1
  1237    979    960 1
  1238    980    962 1
  1239    981    964 1
  1240    982    964 1
  1241    983    965 1
  1242    984    967 1
  1243    985    972 1
  1244   1008    992 1
  1245   1009    992 1
  1246   1010    993 1
  1247   1011    995 1
  1248   1012    997 1
  1249   1013    997 1
  1250   1014    998 1
  1251   1015   1002 1
  1252   1016   1007 1
  1253   1042   1024 1
  1254   1043   1024 1
  1255   1044   1025 1
  1256   1045   1027 1
  1257   1046   1029 1
  1258   1047   1029 1
  1259   1048   1030 1
  1260   1049   1032 1
  1261   1050   1037 1
  1262   1074   1057 1
  1263   1075   1057 1
  1264   1076   1058 1
  1265   1077   1060 1
  1266   1078   1062 1
  1267   1079   1062 1
  1268   1080   1063 1
  1269   1081   1065 1
  1270   1082   1071 1
  1271   1106   1089 1
  1272   1107   1089 1
  1273   1108   1090 1
  1274   1109   1092 1
  1275   1110   1094 1
  1276   1111   1094 1
  1277   1112   1095 1
  1278   1113   1097 1
  1279   1114   1103 1
  1280   1137   1121 1
  1281   1138   1121 1
  1282   1139   1122 1
  1283   1140   1124 1
  1284   1141   1126 1
  1285   1142   1126 1
  1286   1143   1127 1
  1287   1144   1131 1
  1288   1145   1136 1
  1289   1169   1153 1
  1290   1170   1153 1
  1291   1171   1154 1
  1292   1172   1156 1
  1293   1173   1158 1
  1294   1174   1158 1
  1295   1175   1159 1
  1296   1176   1163 1
  1297   1177   1168 1
  1298   1200   1185 1
  1299   1201   1185 1
  1300   1202   1186 1
  1301   1203   1188 1
  1302   1204   1190 1
  1303   1205   1190 1
  1304   1206   1191 1
  1305   1207   1198 1
  1306   1208   1199 1
  1307   1232   1215 1
  1308   1233   1215 1
  1309   1234   1216 1
  1310   1235   1218 1
  1311   1236   1220 1
  1312   1237   1220 1
  1313   1238   1221 1
  1314   1239   1223 1
  1315   1240   1229 1
  1316   1262   1247 1
  1317   1263   1247 1
  1318   1264   1248 1
  1319   1265   1250 1
  1320   1266   1252 1
  1321   1267   1252 1
  1322   1268   1253 1
  1323   1269   1260 1
  1324   1270   1261 1
  1325    668    656 1
  1326    669    656 1
  1327    733    721 1
  1328    734    721 1
  1329    891    879 1
  1330    892    879 1
  1331    953    941 1
  1332    954    941 1
  1333    986    974 1
  1334    987    974 1
  1335   1051   1039 1
  1336   1052   1039 1
  1337   1209   1197 1
  1338   1210   1197 1
  1339   1271   1259 1
  1340   1272   1259 1
  1341    765    751 1
  1342    766    751 1
  1343    797    783 1
  1344    798    783 1
  1345    923    909 1
  1346    924    909 1
  1347   1083   1069 1
  1348   1084   1069 1
  1349   1115   1101 1
  1350   1116   1101 1
  1351   1241   1227 1
  1352   1242   1227 1
  1353    699    688 1
  1354    700    688 1
  1355    701    688 1
  1356    828    817 1
  1357    829    817 1
  1358    830    817 1
  1359    860    849 1
  1360    861    849 1
  1361    862    849 1
  1362   1017   1006 1
  1363   1018   1006 1
  1364   1019   1006 1
  1365   1146   1135 1
  1366   1147   1135 1
  1367   1148   1135 1
  1368   1178   1167 1
  1369   1179   1167 1
  1370   1180   1167 1
  1371    933   1273 1
  1372    955   1887 1
  1373   1281   1306 1
  1374   1314   1338 1
  1375   1346   1371 1
  1376   1379   1403 1
  1377   1411   1435 1
  1378   1443   1467 1
  1379   1475   1499 1
  1380   1507   1529 1
  1381   1537   1561 1
  1382   1599   1624 1
  1383   1632   1656 1
  1384   1664   1689 1
  1385   1697   1721 1
  1386   1729   1753 1
  1387   1761   1785 1
  1388   1793   1817 1
  1389   1825   1847 1
  1390   1855   1879 1
  1391   1273   1274 1
  1392   1273   1275 1
  1393   1273   1276 1
  1394   1276   1277 1
  1395   1277   1278 1
  1396   1278   1279 1
  1397   1278   1280 1
  1398   1279   1283 1
  1399   1280   1281 1
  1400   1280   1282 1
  1401   1282   1283 1
  1402   1283   1284 1
  1403   1284   1285 ar
  1404   1284   1294 ar
  1405   1285   1286 ar
  1406   1286   1287 ar
  1407   1287   1288 1
  1408   1287   1294 ar
  1409   1288   1289 2
  1410   1288   1290 am
  1411   1290   1291 1
  1412   1291   1292 2
  1413   1291   1293 2
  1414   1293   1294 1
  1415   1306   1307 1
  1416   1306   1308 1
  1417   1306   1309 1
  1418   1309   1310 1
  1419   1310   1311 1
  1420   1311   1312 1
  1421   1311   1313 1
  1422   1312   1316 1
  1423   1313   1314 1
  1424   1313   1315 1
  1425   1315   1316 1
  1426   1316   1317 1
  1427   1317   1318 am
  1428   1317   1325 1
  1429   1318   1319 2
  1430   1318   1320 am
  1431   1320   1321 am
  1432   1321   1322 2
  1433   1321   1323 1
  1434   1323   1324 1
  1435   1323   1325 2
  1436   1338   1339 1
  1437   1338   1340 1
  1438   1338   1341 1
  1439   1341   1342 1
  1440   1342   1343 1
  1441   1343   1344 1
  1442   1343   1345 1
  1443   1344   1348 1
  1444   1345   1346 1
  1445   1345   1347 1
  1446   1347   1348 1
  1447   1348   1349 1
  1448   1349   1350 ar
  1449   1349   1359 ar
  1450   1350   1351 ar
  1451   1351   1352 ar
  1452   1352   1353 1
  1453   1352   1359 ar
  1454   1353   1354 2
  1455   1353   1355 am
  1456   1355   1356 1
  1457   1356   1357 2
  1458   1356   1358 2
  1459   1358   1359 1
  1460   1371   1372 1
  1461   1371   1373 1
  1462   1371   1374 1
  1463   1374   1375 1
  1464   1375   1376 1
  1465   1376   1377 1
  1466   1376   1378 1
  1467   1377   1381 1
  1468   1378   1379 1
  1469   1378   1380 1
  1470   1380   1381 1
  1471   1381   1382 1
  1472   1382   1383 ar
  1473   1382   1391 ar
  1474   1383   1384 ar
  1475   1384   1385 ar
  1476   1385   1386 ar
  1477   1385   1391 ar
  1478   1386   1387 1
  1479   1386   1388 ar
  1480   1388   1389 ar
  1481   1389   1390 ar
  1482   1390   1391 ar
  1483   1403   1404 1
  1484   1403   1405 1
  1485   1403   1406 1
  1486   1406   1407 1
  1487   1407   1408 1
  1488   1408   1409 1
  1489   1408   1410 1
  1490   1409   1413 1
  1491   1410   1411 1
  1492   1410   1412 1
  1493   1412   1413 1
  1494   1413   1414 1
  1495   1414   1415 ar
  1496   1414   1423 ar
  1497   1415   1416 ar
  1498   1416   1417 ar
  1499   1417   1418 ar
  1500   1417   1423 ar
  1501   1418   1419 1
  1502   1418   1420 ar
  1503   1420   1421 ar
  1504   1421   1422 ar
  1505   1422   1423 ar
  1506   1435   1436 1
  1507   1435   1437 1
  1508   1435   1438 1
  1509   1438   1439 1
  1510   1439   1440 1
  1511   1440   1441 1
  1512   1440   1442 1
  1513   1441   1445 1
  1514   1442   1443 1
  1515   1442   1444 1
  1516   1444   1445 1
  1517   1445   1446 1
  1518   1446   1447 am
  1519   1446   1454 1
  1520   1447   1448 2
  1521   1447   1449 am
  1522   1449   1450 am
  1523   1450   1451 2
  1524   1450   1452 1
  1525   1452   1453 1
  1526   1452   1454 2
  1527   1467   1468 1
  1528   1467   1469 1
  1529   1467   1470 1
  1530   1470   1471 1
  1531   1471   1472 1
  1532   1472   1473 1
  1533   1472   1474 1
  1534   1473   1477 1
  1535   1474   1475 1
  1536   1474   1476 1
  1537   1476   1477 1
  1538   1477   1478 1
  1539   1478   1479 am
  1540   1478   1486 1
  1541   1479   1480 2
  1542   1479   1481 am
  1543   1481   1482 am
  1544   1482   1483 2
  1545   1482   1484 1
  1546   1484   1485 1
  1547   1484   1486 2
  1548   1499   1500 1
  1549   1499   1501 1
  1550   1499   1502 1
  1551   1502   1503 1
  1552   1503   1504 1
  1553   1504   1505 1
  1554   1504   1506 1
  1555   1505   1509 1
  1556   1506   1507 1
  1557   1506   1508 1
  1558   1508   1509 1
  1559   1509   1510 1
  1560   1510   1511 am
  1561   1510   1517 1
  1562   1511   1512 2
  1563   1511   1513 1
  1564   1513   1514 2
  1565   1514   1515 2
  1566   1514   1516 2
  1567   1516   1517 2
  1568   1529   1530 1
  1569   1529   1531 1
  1570   1529   1532 1
  1571   1532   1533 1
  1572   1533   1534 1
  1573   1534   1535 1
  1574   1534   1536 1
  1575   1535   1539 1
  1576   1536   1537 1
  1577   1536   1538 1
  1578   1538   1539 1
  1579   1539   1540 1
  1580   1540   1541 ar
  1581   1540   1549 ar
  1582   1541   1542 ar
  1583   1542   1543 ar
  1584   1543   1544 ar
  1585   1543   1549 ar
  1586   1544   1545 1
  1587   1544   1546 ar
  1588   1546   1547 ar
  1589   1547   1548 ar
  1590   1548   1549 ar
  1591   1561   1562 1
  1592   1561   1563 1
  1593   1561   1564 1
  1594   1564   1565 1
  1595   1565   1566 1
  1596   1566   1567 1
  1597   1566   1568 1
  1598   1567   1571 1
  1599   1568   1569 1
  1600   1568   1570 1
  1601   1570   1571 1
  1602   1571   1572 1
  1603   1572   1573 am
  1604   1572   1579 1
  1605   1573   1574 2
  1606   1573   1575 1
  1607   1575   1576 2
  1608   1576   1577 2
  1609   1576   1578 2
  1610   1578   1579 2
  1611   1591   1592 1
  1612   1591   1593 1
  1613   1591   1594 1
  1614   1594   1595 1
  1615   1595   1596 1
  1616   1596   1597 1
  1617   1596   1598 1
  1618   1597   1601 1
  1619   1598   1599 1
  1620   1598   1600 1
  1621   1600   1601 1
  1622   1601   1602 1
  1623   1602   1603 ar
  1624   1602   1612 ar
  1625   1603   1604 ar
  1626   1604   1605 ar
  1627   1605   1606 1
  1628   1605   1612 ar
  1629   1606   1607 2
  1630   1606   1608 am
  1631   1608   1609 1
  1632   1609   1610 2
  1633   1609   1611 2
  1634   1611   1612 1
  1635   1624   1625 1
  1636   1624   1626 1
  1637   1624   1627 1
  1638   1627   1628 1
  1639   1628   1629 1
  1640   1629   1630 1
  1641   1629   1631 1
  1642   1630   1634 1
  1643   1631   1632 1
  1644   1631   1633 1
  1645   1633   1634 1
  1646   1634   1635 1
  1647   1635   1636 am
  1648   1635   1643 1
  1649   1636   1637 2
  1650   1636   1638 am
  1651   1638   1639 am
  1652   1639   1640 2
  1653   1639   1641 1
  1654   1641   1642 1
  1655   1641   1643 2
  1656   1656   1657 1
  1657   1656   1658 1
  1658   1656   1659 1
  1659   1659   1660 1
  1660   1660   1661 1
  1661   1661   1662 1
  1662   1661   1663 1
  1663   1662   1666 1
  1664   1663   1664 1
  1665   1663   1665 1
  1666   1665   1666 1
  1667   1666   1667 1
  1668   1667   1668 ar
  1669   1667   1677 ar
  1670   1668   1669 ar
  1671   1669   1670 ar
  1672   1670   1671 1
  1673   1670   1677 ar
  1674   1671   1672 2
  1675   1671   1673 am
  1676   1673   1674 1
  1677   1674   1675 2
  1678   1674   1676 2
  1679   1676   1677 1
  1680   1689   1690 1
  1681   1689   1691 1
  1682   1689   1692 1
  1683   1692   1693 1
  1684   1693   1694 1
  1685   1694   1695 1
  1686   1694   1696 1
  1687   1695   1699 1
  1688   1696   1697 1
  1689   1696   1698 1
  1690   1698   1699 1
  1691   1699   1700 1
  1692   1700   1701 ar
  1693   1700   1709 ar
  1694   1701   1702 ar
  1695   1702   1703 ar
  1696   1703   1704 ar
  1697   1703   1709 ar
  1698   1704   1705 1
  1699   1704   1706 ar
  1700   1706   1707 ar
  1701   1707   1708 ar
  1702   1708   1709 ar
  1703   1721   1722 1
  1704   1721   1723 1
  1705   1721   1724 1
  1706   1724   1725 1
  1707   1725   1726 1
  1708   1726   1727 1
  1709   1726   1728 1
  1710   1727   1731 1
  1711   1728   1729 1
  1712   1728   1730 1
  1713   1730   1731 1
  1714   1731   1732 1
  1715   1732   1733 ar
  1716   1732   1741 ar
  1717   1733   1734 ar
  1718   1734   1735 ar
  1719   1735   1736 ar
  1720   1735   1741 ar
  1721   1736   1737 1
  1722   1736   1738 ar
  1723   1738   1739 ar
  1724   1739   1740 ar
  1725   1740   1741 ar
  1726   1753   1754 1
  1727   1753   1755 1
  1728   1753   1756 1
  1729   1756   1757 1
  1730   1757   1758 1
  1731   1758   1759 1
  1732   1758   1760 1
  1733   1759   1763 1
  1734   1760   1761 1
  1735   1760   1762 1
  1736   1762   1763 1
  1737   1763   1764 1
  1738   1764   1765 am
  1739   1764   1772 1
  1740   1765   1766 2
  1741   1765   1767 am
  1742   1767   1768 am
  1743   1768   1769 2
  1744   1768   1770 1
  1745   1770   1771 1
  1746   1770   1772 2
  1747   1785   1786 1
  1748   1785   1787 1
  1749   1785   1788 1
  1750   1788   1789 1
  1751   1789   1790 1
  1752   1790   1791 1
  1753   1790   1792 1
  1754   1791   1795 1
  1755   1792   1793 1
  1756   1792   1794 1
  1757   1794   1795 1
  1758   1795   1796 1
  1759   1796   1797 am
  1760   1796   1804 1
  1761   1797   1798 2
  1762   1797   1799 am
  1763   1799   1800 am
  1764   1800   1801 2
  1765   1800   1802 1
  1766   1802   1803 1
  1767   1802   1804 2
  1768   1817   1818 1
  1769   1817   1819 1
  1770   1817   1820 1
  1771   1820   1821 1
  1772   1821   1822 1
  1773   1822   1823 1
  1774   1822   1824 1
  1775   1823   1827 1
  1776   1824   1825 1
  1777   1824   1826 1
  1778   1826   1827 1
  1779   1827   1828 1
  1780   1828   1829 am
  1781   1828   1835 1
  1782   1829   1830 2
  1783   1829   1831 1
  1784   1831   1832 2
  1785   1832   1833 2
  1786   1832   1834 2
  1787   1834   1835 2
  1788   1847   1848 1
  1789   1847   1849 1
  1790   1847   1850 1
  1791   1850   1851 1
  1792   1851   1852 1
  1793   1852   1853 1
  1794   1852   1854 1
  1795   1853   1857 1
  1796   1854   1855 1
  1797   1854   1856 1
  1798   1856   1857 1
  1799   1857   1858 1
  1800   1858   1859 ar
  1801   1858   1867 ar
  1802   1859   1860 ar
  1803   1860   1861 ar
  1804   1861   1862 ar
  1805   1861   1867 ar
  1806   1862   1863 1
  1807   1862   1864 ar
  1808   1864   1865 ar
  1809   1865   1866 ar
  1810   1866   1867 ar
  1811   1879   1880 1
  1812   1879   1881 1
  1813   1879   1882 1
  1814   1882   1883 1
  1815   1883   1884 1
  1816   1884   1885 1
  1817   1884   1886 1
  1818   1885   1889 1
  1819   1886   1887 1
  1820   1886   1888 1
  1821   1888   1889 1
  1822   1889   1890 1
  1823   1890   1891 am
  1824   1890   1897 1
  1825   1891   1892 2
  1826   1891   1893 1
  1827   1893   1894 2
  1828   1894   1895 2
  1829   1894   1896 2
  1830   1896   1897 2
  1831   1295   1277 1
  1832   1296   1277 1
  1833   1297   1278 1
  1834   1298   1280 1
  1835   1299   1282 1
  1836   1300   1282 1
  1837   1301   1283 1
  1838   1302   1285 1
  1839   1303   1290 1
  1840   1326   1310 1
  1841   1327   1310 1
  1842   1328   1311 1
  1843   1329   1313 1
  1844   1330   1315 1
  1845   1331   1315 1
  1846   1332   1316 1
  1847   1333   1320 1
  1848   1334   1325 1
  1849   1360   1342 1
  1850   1361   1342 1
  1851   1362   1343 1
  1852   1363   1345 1
  1853   1364   1347 1
  1854   1365   1347 1
  1855   1366   1348 1
  1856   1367   1350 1
  1857   1368   1355 1
  1858   1392   1375 1
  1859   1393   1375 1
  1860   1394   1376 1
  1861   1395   1378 1
  1862   1396   1380 1
  1863   1397   1380 1
  1864   1398   1381 1
  1865   1399   1383 1
  1866   1400   1389 1
  1867   1424   1407 1
  1868   1425   1407 1
  1869   1426   1408 1
  1870   1427   1410 1
  1871   1428   1412 1
  1872   1429   1412 1
  1873   1430   1413 1
  1874   1431   1415 1
  1875   1432   1421 1
  1876   1455   1439 1
  1877   1456   1439 1
  1878   1457   1440 1
  1879   1458   1442 1
  1880   1459   1444 1
  1881   1460   1444 1
  1882   1461   1445 1
  1883   1462   1449 1
  1884   1463   1454 1
  1885   1487   1471 1
  1886   1488   1471 1
  1887   1489   1472 1
  1888   1490   1474 1
  1889   1491   1476 1
  1890   1492   1476 1
  1891   1493   1477 1
  1892   1494   1481 1
  1893   1495   1486 1
  1894   1518   1503 1
  1895   1519   1503 1
  1896   1520   1504 1
  1897   1521   1506 1
  1898   1522   1508 1
  1899   1523   1508 1
  1900   1524   1509 1
  1901   1525   1516 1
  1902   1526   1517 1
  1903   1550   1533 1
  1904   1551   1533 1
  1905   1552   1534 1
  1906   1553   1536 1
  1907   1554   1538 1
  1908   1555   1538 1
  1909   1556   1539 1
  1910   1557   1541 1
  1911   1558   1547 1
  1912   1580   1565 1
  1913   1581   1565 1
  1914   1582   1566 1
  1915   1583   1568 1
  1916   1584   1570 1
  1917   1585   1570 1
  1918   1586   1571 1
  1919   1587   1578 1
  1920   1588   1579 1
  1921   1613   1595 1
  1922   1614   1595 1
  1923   1615   1596 1
  1924   1616   1598 1
  1925   1617   1600 1
  1926   1618   1600 1
  1927   1619   1601 1
  1928   1620   1603 1
  1929   1621   1608 1
  1930   1644   1628 1
  1931   1645   1628 1
  1932   1646   1629 1
  1933   1647   1631 1
  1934   1648   1633 1
  1935   1649   1633 1
  1936   1650   1634 1
  1937   1651   1638 1
  1938   1652   1643 1
  1939   1678   1660 1
  1940   1679   1660 1
  1941   1680   1661 1
  1942   1681   1663 1
  1943   1682   1665 1
  1944   1683   1665 1
  1945   1684   1666 1
  1946   1685   1668 1
  1947   1686   1673 1
  1948   1710   1693 1
  1949   1711   1693 1
  1950   1712   1694 1
  1951   1713   1696 1
  1952   1714   1698 1
  1953   1715   1698 1
  1954   1716   1699 1
  1955   1717   1701 1
  1956   1718   1707 1
  1957   1742   1725 1
  1958   1743   1725 1
  1959   1744   1726 1
  1960   1745   1728 1
  1961   1746   1730 1
  1962   1747   1730 1
  1963   1748   1731 1
  1964   1749   1733 1
  1965   1750   1739 1
  1966   1773   1757 1
  1967   1774   1757 1
  1968   1775   1758 1
  1969   1776   1760 1
  1970   1777   1762 1
  1971   1778   1762 1
  1972   1779   1763 1
  1973   1780   1767 1
  1974   1781   1772 1
  1975   1805   1789 1
  1976   1806   1789 1
  1977   1807   1790 1
  1978   1808   1792 1
  1979   1809   1794 1
  1980   1810   1794 1
  1981   1811   1795 1
  1982   1812   1799 1
  1983   1813   1804 1
  1984   1836   1821 1
  1985   1837   1821 1
  1986   1838   1822 1
  1987   1839   1824 1
  1988   1840   1826 1
  1989   1841   1826 1
  1990   1842   1827 1
  1991   1843   1834 1
  1992   1844   1835 1
  1993   1868   1851 1
  1994   1869   1851 1
  1995   1870   1852 1
  1996   1871   1854 1
  1997   1872   1856 1
  1998   1873   1856 1
  1999   1874   1857 1
  2000   1875   1859 1
  2001   1876   1865 1
  2002   1898   1883 1
  2003   1899   1883 1
  2004   1900   1884 1
  2005   1901   1886 1
  2006   1902   1888 1
  2007   1903   1888 1
  2008   1904   1889 1
  2009   1905   1896 1
  2010   1906   1897 1
  2011   1304   1292 1
  2012   1305   1292 1
  2013   1369   1357 1
  2014   1370   1357 1
  2015   1527   1515 1
  2016   1528   1515 1
  2017   1589   1577 1
  2018   1590   1577 1
  2019   1622   1610 1
  2020   1623   1610 1
  2021   1687   1675 1
  2022   1688   1675 1
  2023   1845   1833 1
  2024   1846   1833 1
  2025   1907   1895 1
  2026   1908   1895 1
  2027   1401   1387 1
  2028   1402   1387 1
  2029   1433   1419 1
  2030   1434   1419 1
  2031   1559   1545 1
  2032   1560   1545 1
  2033   1719   1705 1
  2034   1720   1705 1
  2035   1751   1737 1
  2036   1752   1737 1
  2037   1877   1863 1
  2038   1878   1863 1
  2039   1335   1324 1
  2040   1336   1324 1
  2041   1337   1324 1
  2042   1464   1453 1
  2043   1465   1453 1
  2044   1466   1453 1
  2045   1496   1485 1
  2046   1497   1485 1
  2047   1498   1485 1
  2048   1653   1642 1
  2049   1654   1642 1
  2050   1655   1642 1
  2051   1782   1771 1
  2052   1783   1771 1
  2053   1784   1771 1
  2054   1814   1803 1
  2055   1815   1803 1
  2056   1816   1803 1
  2057   1569   1909 1
  2058   1591   2141 1
  2059   1917   1942 1
  2060   1950   1974 1
  2061   1982   2007 1
  2062   2047   2071 1
  2063   2079   2101 1
  2064   2109   2133 1
  2065   1909   1910 1
  2066   1909   1911 1
  2067   1909   1912 1
  2068   1912   1913 1
  2069   1913   1914 1
  2070   1914   1915 1
  2071   1914   1916 1
  2072   1915   1919 1
  2073   1916   1917 1
  2074   1916   1918 1
  2075   1918   1919 1
  2076   1919   1920 1
  2077   1920   1921 ar
  2078   1920   1930 ar
  2079   1921   1922 ar
  2080   1922   1923 ar
  2081   1923   1924 1
  2082   1923   1930 ar
  2083   1924   1925 2
  2084   1924   1926 am
  2085   1926   1927 1
  2086   1927   1928 2
  2087   1927   1929 2
  2088   1929   1930 1
  2089   1942   1943 1
  2090   1942   1944 1
  2091   1942   1945 1
  2092   1945   1946 1
  2093   1946   1947 1
  2094   1947   1948 1
  2095   1947   1949 1
  2096   1948   1952 1
  2097   1949   1950 1
  2098   1949   1951 1
  2099   1951   1952 1
  2100   1952   1953 1
  2101   1953   1954 am
  2102   1953   1961 1
  2103   1954   1955 2
  2104   1954   1956 am
  2105   1956   1957 am
  2106   1957   1958 2
  2107   1957   1959 1
  2108   1959   1960 1
  2109   1959   1961 2
  2110   1974   1975 1
  2111   1974   1976 1
  2112   1974   1977 1
  2113   1977   1978 1
  2114   1978   1979 1
  2115   1979   1980 1
  2116   1979   1981 1
  2117   1980   1984 1
  2118   1981   1982 1
  2119   1981   1983 1
  2120   1983   1984 1
  2121   1984   1985 1
  2122   1985   1986 ar
  2123   1985   1995 ar
  2124   1986   1987 ar
  2125   1987   1988 ar
  2126   1988   1989 1
  2127   1988   1995 ar
  2128   1989   1990 2
  2129   1989   1991 am
  2130   1991   1992 1
  2131   1992   1993 2
  2132   1992   1994 2
  2133   1994   1995 1
  2134   2007   2008 1
  2135   2007   2009 1
  2136   2007   2010 1
  2137   2010   2011 1
  2138   2011   2012 1
  2139   2012   2013 1
  2140   2012   2014 1
  2141   2013   2017 1
  2142   2014   2015 1
  2143   2014   2016 1
  2144   2016   2017 1
  2145   2017   2018 1
  2146   2018   2019 ar
  2147   2018   2027 ar
  2148   2019   2020 ar
  2149   2020   2021 ar
  2150   2021   2022 ar
  2151   2021   2027 ar
  2152   2022   2023 1
  2153   2022   2024 ar
  2154   2024   2025 ar
  2155   2025   2026 ar
  2156   2026   2027 ar
  2157   2039   2040 1
  2158   2039   2041 1
  2159   2039   2042 1
  2160   2042   2043 1
  2161   2043   2044 1
  2162   2044   2045 1
  2163   2044   2046 1
  2164   2045   2049 1
  2165   2046   2047 1
  2166   2046   2048 1
  2167   2048   2049 1
  2168   2049   2050 1
  2169   2050   2051 am
  2170   2050   2058 1
  2171   2051   2052 2
  2172   2051   2053 am
  2173   2053   2054 am
  2174   2054   2055 2
  2175   2054   2056 1
  2176   2056   2057 1
  2177   2056   2058 2
  2178   2071   2072 1
  2179   2071   2073 1
  2180   2071   2074 1
  2181   2074   2075 1
  2182   2075   2076 1
  2183   2076   2077 1
  2184   2076   2078 1
  2185   2077   2081 1
  2186   2078   2079 1
  2187   2078   2080 1
  2188   2080   2081 1
  2189   2081   2082 1
  2190   2082   2083 am
  2191   2082   2089 1
  2192   2083   2084 2
  2193   2083   2085 1
  2194   2085   2086 2
  2195   2086   2087 2
  2196   2086   2088 2
  2197   2088   2089 2
  2198   2101   2102 1
  2199   2101   2103 1
  2200   2101   2104 1
  2201   2104   2105 1
  2202   2105   2106 1
  2203   2106   2107 1
  2204   2106   2108 1
  2205   2107   2111 1
  2206   2108   2109 1
  2207   2108   2110 1
  2208   2110   2111 1
  2209   2111   2112 1
  2210   2112   2113 ar
  2211   2112   2121 ar
  2212   2113   2114 ar
  2213   2114   2115 ar
  2214   2115   2116 ar
  2215   2115   2121 ar
  2216   2116   2117 1
  2217   2116   2118 ar
  2218   2118   2119 ar
  2219   2119   2120 ar
  2220   2120   2121 ar
  2221   2133   2134 1
  2222   2133   2135 1
  2223   2133   2136 1
  2224   2136   2137 1
  2225   2137   2138 1
  2226   2138   2139 1
  2227   2138   2140 1
  2228   2139   2143 1
  2229   2140   2141 1
  2230   2140   2142 1
  2231   2142   2143 1
  2232   2143   2144 1
  2233   2144   2145 am
  2234   2144   2151 1
  2235   2145   2146 2
  2236   2145   2147 1
  2237   2147   2148 2
  2238   2148   2149 2
  2239   2148   2150 2
  2240   2150   2151 2
  2241   1931   1913 1
  2242   1932   1913 1
  2243   1933   1914 1
  2244   1934   1916 1
  2245   1935   1918 1
  2246   1936   1918 1
  2247   1937   1919 1
  2248   1938   1921 1
  2249   1939   1926 1
  2250   1962   1946 1
  2251   1963   1946 1
  2252   1964   1947 1
  2253   1965   1949 1
  2254   1966   1951 1
  2255   1967   1951 1
  2256   1968   1952 1
  2257   1969   1956 1
  2258   1970   1961 1
  2259   1996   1978 1
  2260   1997   1978 1
  2261   1998   1979 1
  2262   1999   1981 1
  2263   2000   1983 1
  2264   2001   1983 1
  2265   2002   1984 1
  2266   2003   1986 1
  2267   2004   1991 1
  2268   2028   2011 1
  2269   2029   2011 1
  2270   2030   2012 1
  2271   2031   2014 1
  2272   2032   2016 1
  2273   2033   2016 1
  2274   2034   2017 1
  2275   2035   2019 1
  2276   2036   2025 1
  2277   2059   2043 1
  2278   2060   2043 1
  2279   2061   2044 1
  2280   2062   2046 1
  2281   2063   2048 1
  2282   2064   2048 1
  2283   2065   2049 1
  2284   2066   2053 1
  2285   2067   2058 1
  2286   2090   2075 1
  2287   2091   2075 1
  2288   2092   2076 1
  2289   2093   2078 1
  2290   2094   2080 1
  2291   2095   2080 1
  2292   2096   2081 1
  2293   2097   2088 1
  2294   2098   2089 1
  2295   2122   2105 1
  2296   2123   2105 1
  2297   2124   2106 1
  2298   2125   2108 1
  2299   2126   2110 1
  2300   2127   2110 1
  2301   2128   2111 1
  2302   2129   2113 1
  2303   2130   2119 1
  2304   2152   2137 1
  2305   2153   2137 1
  2306   2154   2138 1
  2307   2155   2140 1
  2308   2156   2142 1
  2309   2157   2142 1
  2310   2158   2143 1
  2311   2159   2150 1
  2312   2160   2151 1
  2313   1940   1928 1
  2314   1941   1928 1
  2315   2005   1993 1
  2316   2006   1993 1
  2317   2099   2087 1
  2318   2100   2087 1
  2319   2161   2149 1
  2320   2162   2149 1
  2321   2037   2023 1
  2322   2038   2023 1
  2323   2131   2117 1
  2324   2132   2117 1
  2325   1971   1960 1
  2326   1972   1960 1
  2327   1973   1960 1
  2328   2068   2057 1
  2329   2069   2057 1
  2330   2070   2057 1
@<TRIPOS>MOLECULE
dna-seg-22-bp33
2100 2263 1 0 0
BIOPOLYMER
NO_CHARGES


@<TRIPOS>ATOM
      1 P          9.8063    -2.9726  2401.8501 P.3      735 DA      0.0000
      2 OP1       11.1532    -2.8454  2401.1830 O.co2    735 DA      0.0000
      3 OP2        9.6225    -4.1799  2402.6810 O.co2    735 DA      0.0000
      4 O5'        9.4904    -1.5017  2402.3809 O.3      735 DA      0.0000
      5 C5'        9.5373    -0.3383  2401.5566 C.3      735 DA      0.0000
      6 C4'        8.5113     0.6519  2402.0789 C.3      735 DA      0.0000
      7 O4'        7.2304     0.0883  2402.1071 O.3      735 DA      0.0000
      8 C3'        8.7619     1.2640  2403.4462 C.3      735 DA      0.0000
      9 O3'        8.9535     2.6764  2403.3684 O.3      735 DA      0.0000
     10 C2'        7.5521     0.8148  2404.2749 C.3      735 DA      0.0000
     11 C1'        6.4883     0.5522  2403.2811 C.3      735 DA      0.0000
     12 N9         5.4502    -0.4597  2403.5492 N.ar     735 DA      0.0000
     13 C8         5.5559    -1.8246  2403.6644 C.ar     735 DA      0.0000
     14 N7         4.4093    -2.4394  2403.8337 N.ar     735 DA      0.0000
     15 C5         3.4731    -1.4109  2403.7967 C.ar     735 DA      0.0000
     16 C6         2.0542    -1.4162  2403.9171 C.ar     735 DA      0.0000
     17 N6         1.3014    -2.4923  2404.1088 N.pl3    735 DA      0.0000
     18 N1         1.4463    -0.1896  2403.8190 N.ar     735 DA      0.0000
     19 C2         2.1878     0.9403  2403.6299 C.ar     735 DA      0.0000
     20 N3         3.5094     1.0159  2403.5220 N.ar     735 DA      0.0000
     21 C4         4.0925    -0.1963  2403.6139 C.ar     735 DA      0.0000
     22 H5'        9.3014    -0.6057  2400.5266 H        735 DA      0.0000
     23 H5''      10.5322     0.1048  2401.6026 H        735 DA      0.0000
     24 H4'        8.4773     1.4759  2401.3662 H        735 DA      0.0000
     25 H3'        9.6599     0.8140  2403.8694 H        735 DA      0.0000
     26 H2'        7.7857    -0.0905  2404.8352 H        735 DA      0.0000
     27 H2''       7.2449     1.6097  2404.9545 H        735 DA      0.0000
     28 H1'        6.0004     1.4953  2403.0351 H        735 DA      0.0000
     29 H8         6.5005    -2.3462  2403.6195 H        735 DA      0.0000
     30 H2         1.6430     1.8702  2403.5607 H        735 DA      0.0000
     31 H61        1.6856    -3.3677  2404.4350 H        735 DA      0.0000
     32 H62        0.3105    -2.4340  2403.9220 H        735 DA      0.0000
     33 P          9.9357     3.5511  2404.3246 P.3      736 DT      0.0000
     34 OP1       10.7057     4.5978  2403.5273 O.co2    736 DT      0.0000
     35 OP2       10.7555     2.6846  2405.1452 O.co2    736 DT      0.0000
     36 O5'        8.8552     4.4869  2405.1383 O.3      736 DT      0.0000
     37 C5'        7.7923     4.9358  2404.1932 C.3      736 DT      0.0000
     38 C4'        6.5134     4.8054  2404.9809 C.3      736 DT      0.0000
     39 O4'        6.1001     3.4711  2405.1729 O.3      736 DT      0.0000
     40 C3'        6.6396     5.3958  2406.3975 C.3      736 DT      0.0000
     41 O3'        6.1035     6.7059  2406.3992 O.3      736 DT      0.0000
     42 C2'        5.9071     4.4013  2407.2948 C.3      736 DT      0.0000
     43 C1'        5.1604     3.5694  2406.3302 C.3      736 DT      0.0000
     44 N1         4.7741     2.2092  2406.6699 N.am     736 DT      0.0000
     45 C2         3.4125     1.9584  2406.8079 C.2      736 DT      0.0000
     46 O2         2.6117     2.8803  2406.7198 O.2      736 DT      0.0000
     47 N3         3.0155     0.6803  2407.0618 N.am     736 DT      0.0000
     48 C4         3.8969    -0.3558  2407.1820 C.2      736 DT      0.0000
     49 O4         3.4484    -1.5189  2407.4372 O.2      736 DT      0.0000
     50 C5         5.2929    -0.0775  2407.0104 C.2      736 DT      0.0000
     51 C7         6.3039    -1.1870  2407.0979 C.3      736 DT      0.0000
     52 C6         5.6789     1.1844  2406.7546 C.2      736 DT      0.0000
     53 H5'        7.9559     5.9704  2403.8916 H        736 DT      0.0000
     54 H5''       7.7654     4.2864  2403.3182 H        736 DT      0.0000
     55 H4'        5.7245     5.3399  2404.4518 H        736 DT      0.0000
     56 H3'        7.6912     5.4341  2406.6819 H        736 DT      0.0000
     57 H2'        6.6115     3.7989  2407.8682 H        736 DT      0.0000
     58 H2''       5.2200     4.9228  2407.9612 H        736 DT      0.0000
     59 H1'        4.2720     4.1154  2406.0128 H        736 DT      0.0000
     60 H3         2.0288     0.4912  2407.1655 H        736 DT      0.0000
     61 H6         6.7285     1.3956  2406.6125 H        736 DT      0.0000
     62 H71        5.7950    -2.1270  2407.3110 H        736 DT      0.0000
     63 H72        6.8360    -1.2688  2406.1501 H        736 DT      0.0000
     64 H73        7.0141    -0.9693  2407.8957 H        736 DT      0.0000
     65 P          6.1792     7.7919  2407.5058 P.3      737 DT      0.0000
     66 OP1        5.9752     9.2019  2406.8937 O.co2    737 DT      0.0000
     67 OP2        7.5174     7.6524  2408.1358 O.co2    737 DT      0.0000
     68 O5'        4.8605     7.5587  2408.3881 O.3      737 DT      0.0000
     69 C5'        3.6469     7.9210  2407.6764 C.3      737 DT      0.0000
     70 C4'        2.4865     7.2773  2408.3525 C.3      737 DT      0.0000
     71 O4'        2.5242     5.8558  2408.3292 O.3      737 DT      0.0000
     72 C3'        2.2978     7.6909  2409.8192 C.3      737 DT      0.0000
     73 O3'        0.9311     7.9452  2410.0832 O.3      737 DT      0.0000
     74 C2'        2.7428     6.4049  2410.5555 C.3      737 DT      0.0000
     75 C1'        2.0466     5.4077  2409.6519 C.3      737 DT      0.0000
     76 N1         2.4666     4.0509  2409.9496 N.am     737 DT      0.0000
     77 C2         1.5024     3.0575  2410.0044 C.2      737 DT      0.0000
     78 O2         0.3233     3.3602  2409.8160 O.2      737 DT      0.0000
     79 N3         1.9058     1.7793  2410.2704 N.am     737 DT      0.0000
     80 C4         3.2124     1.4590  2410.4774 C.2      737 DT      0.0000
     81 O4         3.5127     0.2514  2410.7007 O.2      737 DT      0.0000
     82 C5         4.1963     2.4883  2410.4123 C.2      737 DT      0.0000
     83 C7         5.6569     2.2139  2410.6222 C.3      737 DT      0.0000
     84 C6         3.7826     3.7381  2410.1512 C.2      737 DT      0.0000
     85 H5'        3.5240     9.0040  2407.6888 H        737 DT      0.0000
     86 H5''       3.7093     7.5719  2406.6457 H        737 DT      0.0000
     87 H4'        1.5898     7.5842  2407.8140 H        737 DT      0.0000
     88 H3'        2.9245     8.5432  2410.0816 H        737 DT      0.0000
     89 H2'        3.8256     6.2801  2410.5542 H        737 DT      0.0000
     90 H2''       2.3413     6.3694  2411.5682 H        737 DT      0.0000
     91 H1'        0.9636     5.5047  2409.7276 H        737 DT      0.0000
     92 H3         1.2110     1.0476  2410.3148 H        737 DT      0.0000
     93 H6         4.5176     4.5276  2410.0981 H        737 DT      0.0000
     94 H71        5.8027     1.1522  2410.8211 H        737 DT      0.0000
     95 H72        6.2114     2.4951  2409.7269 H        737 DT      0.0000
     96 H73        6.0176     2.7954  2411.4706 H        737 DT      0.0000
     97 P          0.0932     9.1247  2410.6912 P.3      738 DC      0.0000
     98 OP1       -0.7124     9.8393  2409.6232 O.co2    738 DC      0.0000
     99 OP2        1.0649     9.9549  2411.4261 O.co2    738 DC      0.0000
    100 O5'       -0.9598     8.1925  2411.5172 O.3      738 DC      0.0000
    101 C5'       -1.4700     7.2598  2410.4949 C.3      738 DC      0.0000
    102 C4'       -2.4019     6.3095  2411.1914 C.3      738 DC      0.0000
    103 O4'       -1.8171     5.0684  2411.4383 O.3      738 DC      0.0000
    104 C3'       -3.0172     6.8364  2412.4829 C.3      738 DC      0.0000
    105 O3'       -4.4361     6.8009  2412.4032 O.3      738 DC      0.0000
    106 C2'       -2.3285     5.9604  2413.5316 C.3      738 DC      0.0000
    107 C1'       -2.0512     4.6873  2412.8352 C.3      738 DC      0.0000
    108 N1        -0.7972     4.0038  2413.1673 N.am     738 DC      0.0000
    109 C2        -0.8979     2.6381  2413.4231 C.2      738 DC      0.0000
    110 O2        -1.9912     2.0639  2413.4276 O.2      738 DC      0.0000
    111 N3         0.2633     1.9585  2413.6970 N.2      738 DC      0.0000
    112 C4         1.4746     2.5854  2413.6871 C.2      738 DC      0.0000
    113 N4         2.5402     1.8420  2413.9639 N.pl3    738 DC      0.0000
    114 C5         1.5630     3.9672  2413.4090 C.2      738 DC      0.0000
    115 C6         0.4132     4.6210  2413.1442 C.2      738 DC      0.0000
    116 H5'       -2.0060     7.8096  2409.7213 H        738 DC      0.0000
    117 H5''      -0.6418     6.7077  2410.0507 H        738 DC      0.0000
    118 H4'       -3.2297     6.1301  2410.5055 H        738 DC      0.0000
    119 H3'       -2.7001     7.8694  2412.6262 H        738 DC      0.0000
    120 H2'       -1.4013     6.4232  2413.8695 H        738 DC      0.0000
    121 H2''      -2.9950     5.7902  2414.3772 H        738 DC      0.0000
    122 H1'       -2.8988     4.0067  2412.9162 H        738 DC      0.0000
    123 H5         2.5134     4.4801  2413.4084 H        738 DC      0.0000
    124 H6         0.4563     5.6733  2412.9052 H        738 DC      0.0000
    125 H41        2.4314     0.8578  2414.1631 H        738 DC      0.0000
    126 H42        3.4591     2.2610  2413.9752 H        738 DC      0.0000
    127 P         -5.4728     7.6085  2413.3552 P.3      739 DA      0.0000
    128 OP1       -6.7519     7.7928  2412.5615 O.co2    739 DA      0.0000
    129 OP2       -4.8532     8.9040  2413.7008 O.co2    739 DA      0.0000
    130 O5'       -5.6756     6.6161  2414.6522 O.3      739 DA      0.0000
    131 C5'       -6.0573     5.2376  2414.3570 C.3      739 DA      0.0000
    132 C4'       -6.1079     4.4299  2415.6123 C.3      739 DA      0.0000
    133 O4'       -4.9594     3.6118  2415.8544 O.3      739 DA      0.0000
    134 C3'       -6.2126     5.2363  2416.9175 C.3      739 DA      0.0000
    135 O3'       -6.7018     4.3743  2417.9475 O.3      739 DA      0.0000
    136 C2'       -4.7202     5.5582  2417.1321 C.3      739 DA      0.0000
    137 C1'       -4.2048     4.1267  2416.9489 C.3      739 DA      0.0000
    138 N9        -2.7549     4.1485  2416.8545 N.ar     739 DA      0.0000
    139 C8        -1.8856     5.1976  2416.7387 C.ar     739 DA      0.0000
    140 N7        -0.6077     4.8639  2416.7201 N.ar     739 DA      0.0000
    141 C5        -0.6406     3.4807  2416.8276 C.ar     739 DA      0.0000
    142 C6         0.3876     2.5067  2416.8622 C.ar     739 DA      0.0000
    143 N6         1.6779     2.7762  2416.7769 N.pl3    739 DA      0.0000
    144 N1        -0.0173     1.2093  2416.9947 N.ar     739 DA      0.0000
    145 C2        -1.3452     0.8844  2417.0749 C.ar     739 DA      0.0000
    146 N3        -2.3649     1.7393  2417.0451 N.ar     739 DA      0.0000
    147 C4        -1.9445     3.0222  2416.9221 C.ar     739 DA      0.0000
    148 H5'       -7.0401     5.2304  2413.8859 H        739 DA      0.0000
    149 H5''      -5.3277     4.7996  2413.6757 H        739 DA      0.0000
    150 H4'       -6.9776     3.7755  2415.5534 H        739 DA      0.0000
    151 H3'       -6.8196     6.1345  2416.8039 H        739 DA      0.0000
    152 H2'       -4.3275     6.2439  2416.3814 H        739 DA      0.0000
    153 H2''      -4.5324     5.9230  2418.1420 H        739 DA      0.0000
    154 H1'       -4.4740     3.5575  2417.8385 H        739 DA      0.0000
    155 H8        -2.2189     6.2225  2416.6677 H        739 DA      0.0000
    156 H2        -1.5877    -0.1636  2417.1714 H        739 DA      0.0000
    157 H61        2.5202     2.2488  2416.9570 H        739 DA      0.0000
    158 H62        1.8631     3.7179  2416.4622 H        739 DA      0.0000
    159 P         -8.2612     4.0441  2418.0879 P.3      740 DC      0.0000
    160 OP1       -9.0338     4.3161  2416.8428 O.co2    740 DC      0.0000
    161 OP2       -8.6708     4.9274  2419.2308 O.co2    740 DC      0.0000
    162 O5'       -8.2793     2.4840  2418.3711 O.3      740 DC      0.0000
    163 C5'       -8.1780     1.5157  2417.2834 C.3      740 DC      0.0000
    164 C4'       -7.5083     0.3307  2417.9883 C.3      740 DC      0.0000
    165 O4'       -6.1902     0.7177  2418.3003 O.3      740 DC      0.0000
    166 C3'       -8.1832    -0.0677  2419.2982 C.3      740 DC      0.0000
    167 O3'       -8.4914    -1.4784  2419.3661 O.3      740 DC      0.0000
    168 C2'       -7.1940     0.3907  2420.3804 C.3      740 DC      0.0000
    169 C1'       -5.8911     0.2471  2419.7043 C.3      740 DC      0.0000
    170 N1        -4.7519     1.0903  2420.0571 N.am     740 DC      0.0000
    171 C2        -3.5128     0.4530  2420.0302 C.2      740 DC      0.0000
    172 O2        -3.3909    -0.7478  2419.8233 O.2      740 DC      0.0000
    173 N3        -2.4136     1.2131  2420.2833 N.2      740 DC      0.0000
    174 C4        -2.4884     2.5457  2420.5167 C.2      740 DC      0.0000
    175 N4        -1.3419     3.1826  2420.7476 N.pl3    740 DC      0.0000
    176 C5        -3.7575     3.1872  2420.5232 C.2      740 DC      0.0000
    177 C6        -4.8376     2.4308  2420.2738 C.2      740 DC      0.0000
    178 H5'       -9.1614     1.2456  2416.8985 H        740 DC      0.0000
    179 H5''      -7.5429     1.8983  2416.4844 H        740 DC      0.0000
    180 H4'       -7.4858    -0.5266  2417.3157 H        740 DC      0.0000
    181 H3'       -9.1079     0.4996  2419.4041 H        740 DC      0.0000
    182 H2'       -7.3766     1.4263  2420.6674 H        740 DC      0.0000
    183 H2''      -7.2481    -0.2633  2421.2507 H        740 DC      0.0000
    184 H1'       -5.5906    -0.8005  2419.6910 H        740 DC      0.0000
    185 H5        -3.8488     4.2449  2420.7217 H        740 DC      0.0000
    186 H6        -5.8087     2.9025  2420.2441 H        740 DC      0.0000
    187 H41       -0.4700     2.6729  2420.7366 H        740 DC      0.0000
    188 H42       -1.3442     4.1753  2420.9338 H        740 DC      0.0000
    189 P          8.4874     0.1022  2422.3256 P.3      740 DG      0.0000
    190 OP1        9.9699     0.1869  2422.5044 O.co2    740 DG      0.0000
    191 OP2        7.9632     1.0338  2421.2408 O.co2    740 DG      0.0000
    192 O5'        8.0519    -1.4715  2422.1184 O.3      740 DG      0.0000
    193 C5'        7.3797    -2.1768  2423.2142 C.3      740 DG      0.0000
    194 C4'        6.3253    -3.0809  2422.5799 C.3      740 DG      0.0000
    195 O4'        5.0789    -2.4471  2422.4841 O.3      740 DG      0.0000
    196 C3'        6.6704    -3.5636  2421.1736 C.3      740 DG      0.0000
    197 O3'        6.3033    -4.9369  2420.9066 O.3      740 DG      0.0000
    198 C2'        5.8949    -2.5869  2420.2713 C.3      740 DG      0.0000
    199 C1'        4.6351    -2.3783  2421.0951 C.3      740 DG      0.0000
    200 N9         4.0347    -1.0613  2420.8218 N.ar     740 DG      0.0000
    201 C8         4.6768     0.1440  2420.6651 C.ar     740 DG      0.0000
    202 N7         3.8720     1.1499  2420.4467 N.ar     740 DG      0.0000
    203 C5         2.6082     0.5718  2420.4715 C.ar     740 DG      0.0000
    204 C6         1.3149     1.1380  2420.3151 C.2      740 DG      0.0000
    205 O6         1.0487     2.3322  2420.1182 O.2      740 DG      0.0000
    206 N1         0.2870     0.2318  2420.4020 N.am     740 DG      0.0000
    207 C2         0.4929    -1.0898  2420.6227 C.2      740 DG      0.0000
    208 N2        -0.5991    -1.8467  2420.6860 N.pl3    740 DG      0.0000
    209 N3         1.6875    -1.6729  2420.7804 N.2      740 DG      0.0000
    210 C4         2.6956    -0.7831  2420.6971 C.ar     740 DG      0.0000
    211 H5'        8.0999    -2.7753  2423.7720 H        740 DG      0.0000
    212 H5''       6.9006    -1.4581  2423.8791 H        740 DG      0.0000
    213 H4'        6.2080    -3.9578  2423.2166 H        740 DG      0.0000
    214 H3'        7.7397    -3.4381  2421.0031 H        740 DG      0.0000
    215 H2'        6.4399    -1.6538  2420.1286 H        740 DG      0.0000
    216 H2''       5.6591    -3.0487  2419.3125 H        740 DG      0.0000
    217 H1'        3.9151    -3.1705  2420.8899 H        740 DG      0.0000
    218 H8         5.7502     0.2502  2420.7179 H        740 DG      0.0000
    219 H1        -0.6612     0.5634  2420.2972 H        740 DG      0.0000
    220 H21       -1.5111    -1.4281  2420.5709 H        740 DG      0.0000
    221 H22       -0.5164    -2.8400  2420.8492 H        740 DG      0.0000
    222 P          5.9375    -5.2733  2419.3831 P.3      739 DT      0.0000
    223 OP1        6.2191    -6.6991  2418.9922 O.co2    739 DT      0.0000
    224 OP2        6.8477    -4.3342  2418.6826 O.co2    739 DT      0.0000
    225 O5'        4.3703    -4.9667  2419.2522 O.3      739 DT      0.0000
    226 C5'        3.4565    -6.0781  2419.5198 C.3      739 DT      0.0000
    227 C4'        2.1696    -5.8320  2418.7628 C.3      739 DT      0.0000
    228 O4'        1.7978    -4.4655  2418.7355 O.3      739 DT      0.0000
    229 C3'        2.2405    -6.2700  2417.3081 C.3      739 DT      0.0000
    230 O3'        1.0217    -6.8658  2416.8130 O.3      739 DT      0.0000
    231 C2'        2.5730    -4.9836  2416.5852 C.3      739 DT      0.0000
    232 C1'        1.6859    -4.0259  2417.3633 C.3      739 DT      0.0000
    233 N1         2.2741    -2.6858  2417.2120 N.am     739 DT      0.0000
    234 C2         1.3949    -1.6130  2417.3188 C.2      739 DT      0.0000
    235 O2         0.1988    -1.8061  2417.5085 O.2      739 DT      0.0000
    236 N3         1.9237    -0.3583  2417.1986 N.am     739 DT      0.0000
    237 C4         3.2533    -0.1541  2416.9810 C.2      739 DT      0.0000
    238 O4         3.6537     1.0529  2416.8835 O.2      739 DT      0.0000
    239 C5         4.1289    -1.2723  2416.8747 C.2      739 DT      0.0000
    240 C7         5.5977    -1.0588  2416.6457 C.3      739 DT      0.0000
    241 C6         3.6069    -2.4955  2416.9964 C.2      739 DT      0.0000
    242 H5'        3.9067    -7.0130  2419.1861 H        739 DT      0.0000
    243 H5''       3.2485    -6.1324  2420.5884 H        739 DT      0.0000
    244 H4'        1.3729    -6.3936  2419.2507 H        739 DT      0.0000
    245 H3'        3.0623    -6.9754  2417.1841 H        739 DT      0.0000
    246 H2'        3.6282    -4.7263  2416.6768 H        739 DT      0.0000
    247 H2''       2.2717    -5.0335  2415.5388 H        739 DT      0.0000
    248 H1'        0.6542    -4.0559  2417.0127 H        739 DT      0.0000
    249 H3         1.3109     0.4411  2417.2733 H        739 DT      0.0000
    250 H6         4.2565    -3.3551  2416.9223 H        739 DT      0.0000
    251 H71        5.8037     0.0093  2416.5770 H        739 DT      0.0000
    252 H72        6.1603    -1.4844  2417.4766 H        739 DT      0.0000
    253 H73        5.8955    -1.5467  2415.7176 H        739 DT      0.0000
    254 P          1.4452    -8.2692  2416.0346 P.3      738 DG      0.0000
    255 OP1        1.3614    -9.4800  2416.9058 O.co2    738 DG      0.0000
    256 OP2        2.8211    -7.8880  2415.6290 O.co2    738 DG      0.0000
    257 O5'        0.2718    -8.3676  2414.9538 O.3      738 DG      0.0000
    258 C5'       -1.0309    -8.8438  2415.3772 C.3      738 DG      0.0000
    259 C4'       -2.0053    -7.7616  2414.9295 C.3      738 DG      0.0000
    260 O4'       -1.4571    -6.4871  2415.2002 O.3      738 DG      0.0000
    261 C3'       -2.3544    -7.8039  2413.4418 C.3      738 DG      0.0000
    262 O3'       -3.7519    -7.9016  2413.2333 O.3      738 DG      0.0000
    263 C2'       -1.6922    -6.5652  2412.8651 C.3      738 DG      0.0000
    264 C1'       -1.6409    -5.6314  2414.0512 C.3      738 DG      0.0000
    265 N9        -0.5259    -4.6887  2413.9276 N.ar     738 DG      0.0000
    266 C8         0.8030    -4.9630  2413.7688 C.ar     738 DG      0.0000
    267 N7         1.5569    -3.8936  2413.6907 N.ar     738 DG      0.0000
    268 C5         0.6608    -2.8375  2413.8282 C.ar     738 DG      0.0000
    269 C6         0.8497    -1.4303  2413.8377 C.2      738 DG      0.0000
    270 O6         1.9121    -0.8248  2413.7386 O.2      738 DG      0.0000
    271 N1        -0.2975    -0.7038  2413.9867 N.am     738 DG      0.0000
    272 C2        -1.5277    -1.3009  2414.1195 C.2      738 DG      0.0000
    273 N2        -2.5648    -0.4739  2414.2552 N.pl3    738 DG      0.0000
    274 N3        -1.7743    -2.6149  2414.1238 N.2      738 DG      0.0000
    275 C4        -0.6283    -3.3217  2413.9731 C.ar     738 DG      0.0000
    276 H5'       -1.2664    -9.7942  2414.8985 H        738 DG      0.0000
    277 H5''      -1.0588    -8.9508  2416.4616 H        738 DG      0.0000
    278 H4'       -2.9263    -7.8690  2415.5025 H        738 DG      0.0000
    279 H3'       -1.8801    -8.6818  2413.0032 H        738 DG      0.0000
    280 H2'       -0.6905    -6.7899  2412.4987 H        738 DG      0.0000
    281 H2''      -2.3040    -6.1397  2412.0695 H        738 DG      0.0000
    282 H1'       -2.5814    -5.0872  2414.1382 H        738 DG      0.0000
    283 H8         1.1958    -5.9675  2413.7127 H        738 DG      0.0000
    284 H1        -0.2395     0.3044  2413.9995 H        738 DG      0.0000
    285 H21       -2.4173     0.5252  2414.2562 H        738 DG      0.0000
    286 H22       -3.4979    -0.8467  2414.3570 H        738 DG      0.0000
    287 P         -4.8117    -7.1120  2412.3670 P.3      737 DA      0.0000
    288 OP1       -6.1227    -6.9576  2413.1483 O.co2    737 DA      0.0000
    289 OP2       -5.0211    -7.9360  2411.1743 O.co2    737 DA      0.0000
    290 O5'       -4.2230    -5.6031  2412.1922 O.3      737 DA      0.0000
    291 C5'       -4.5627    -4.7496  2413.3486 C.3      737 DA      0.0000
    292 C4'       -5.4332    -3.6360  2412.8208 C.3      737 DA      0.0000
    293 O4'       -4.7131    -2.4502  2412.5985 O.3      737 DA      0.0000
    294 C3'       -6.0847    -3.9735  2411.4803 C.3      737 DA      0.0000
    295 O3'       -7.4220    -3.5410  2411.4051 O.3      737 DA      0.0000
    296 C2'       -5.0977    -3.3925  2410.4837 C.3      737 DA      0.0000
    297 C1'       -4.3505    -2.3075  2411.2076 C.3      737 DA      0.0000
    298 N9        -2.8982    -2.4039  2410.9821 N.ar     737 DA      0.0000
    299 C8        -2.1233    -3.5282  2410.7957 C.ar     737 DA      0.0000
    300 N7        -0.8486    -3.2810  2410.5998 N.ar     737 DA      0.0000
    301 C5        -0.7762    -1.8963  2410.6867 C.ar     737 DA      0.0000
    302 C6         0.3195    -1.0081  2410.5810 C.ar     737 DA      0.0000
    303 N6         1.5641    -1.3976  2410.3686 N.pl3    737 DA      0.0000
    304 N1         0.0303     0.3167  2410.7048 N.ar     737 DA      0.0000
    305 C2        -1.2461     0.7479  2410.9293 C.ar     737 DA      0.0000
    306 N3        -2.3179    -0.0335  2411.0452 N.ar     737 DA      0.0000
    307 C4        -2.0179    -1.3479  2410.9090 C.ar     737 DA      0.0000
    308 H5'       -5.1047    -5.3281  2414.0967 H        737 DA      0.0000
    309 H5''      -3.6538    -4.3358  2413.7853 H        737 DA      0.0000
    310 H4'       -6.2192    -3.4344  2413.5485 H        737 DA      0.0000
    311 H3'       -6.0762    -5.0576  2411.3672 H        737 DA      0.0000
    312 H2'       -5.6281    -2.9773  2409.6269 H        737 DA      0.0000
    313 H2''      -4.4039    -4.1655  2410.1532 H        737 DA      0.0000
    314 H1'       -4.6997    -1.3391  2410.8494 H        737 DA      0.0000
    315 H8        -2.5302    -4.5286  2410.8096 H        737 DA      0.0000
    316 H2        -1.3990     1.8131  2411.0205 H        737 DA      0.0000
    317 H61        2.3465    -0.8421  2410.6840 H        737 DA      0.0000
    318 H62        1.7361    -2.2660  2409.8823 H        737 DA      0.0000
    319 P         -8.2495    -2.9015  2410.2205 P.3      736 DA      0.0000
    320 OP1       -9.6106    -2.3538  2410.7404 O.co2    736 DA      0.0000
    321 OP2       -8.5089    -4.0415  2409.2868 O.co2    736 DA      0.0000
    322 O5'       -7.4528    -1.6387  2409.7178 O.3      736 DA      0.0000
    323 C5'       -7.8270    -0.3222  2410.1737 C.3      736 DA      0.0000
    324 C4'       -6.9180     0.6632  2409.4717 C.3      736 DA      0.0000
    325 O4'       -5.5909     0.2368  2409.3510 O.3      736 DA      0.0000
    326 C3'       -7.3871     1.0288  2408.0642 C.3      736 DA      0.0000
    327 O3'       -7.7721     2.4162  2408.0328 O.3      736 DA      0.0000
    328 C2'       -6.2370     0.5727  2407.1647 C.3      736 DA      0.0000
    329 C1'       -5.0408     0.6682  2408.0624 C.3      736 DA      0.0000
    330 N9        -3.9288    -0.2279  2407.7628 N.ar     736 DA      0.0000
    331 C8        -3.9361    -1.5937  2407.5681 C.ar     736 DA      0.0000
    332 N7        -2.7434    -2.1063  2407.3627 N.ar     736 DA      0.0000
    333 C5        -1.8918    -1.0213  2407.4372 C.ar     736 DA      0.0000
    334 C6        -0.4895    -0.9117  2407.3037 C.ar     736 DA      0.0000
    335 N6         0.3140    -1.9427  2407.0605 N.pl3    736 DA      0.0000
    336 N1         0.0142     0.3556  2407.4525 N.ar     736 DA      0.0000
    337 C2        -0.7743     1.4180  2407.7051 C.ar     736 DA      0.0000
    338 N3        -2.1033     1.3904  2407.8439 N.ar     736 DA      0.0000
    339 C4        -2.5965     0.1405  2407.6967 C.ar     736 DA      0.0000
    340 H5'       -8.8670    -0.1192  2409.9185 H        736 DA      0.0000
    341 H5''      -7.6890    -0.2502  2411.2525 H        736 DA      0.0000
    342 H4'       -6.9134     1.5795  2410.0619 H        736 DA      0.0000
    343 H3'       -8.2642     0.4258  2407.8292 H        736 DA      0.0000
    344 H2'       -6.3895    -0.4517  2406.8248 H        736 DA      0.0000
    345 H2''      -6.1293     1.2448  2406.3133 H        736 DA      0.0000
    346 H1'       -4.6924     1.6993  2408.1235 H        736 DA      0.0000
    347 H8        -4.8385    -2.1869  2407.5831 H        736 DA      0.0000
    348 H2        -0.2894     2.3779  2407.8041 H        736 DA      0.0000
    349 H61        1.2727    -1.8215  2407.3545 H        736 DA      0.0000
    350 H62       -0.0113    -2.7878  2406.6132 H        736 DA      0.0000
    351 P         -8.2944     3.0495  2406.6478 P.3      735 DT      0.0000
    352 OP1       -8.9803     4.3796  2406.7059 O.co2    735 DT      0.0000
    353 OP2       -9.1288     1.9200  2406.1352 O.co2    735 DT      0.0000
    354 O5'       -6.8079     3.3209  2405.9447 O.3      735 DT      0.0000
    355 C5'       -5.8955     3.8440  2406.9570 C.3      735 DT      0.0000
    356 C4'       -4.7884     4.5813  2406.2740 C.3      735 DT      0.0000
    357 O4'       -3.6352     3.8149  2406.0936 O.3      735 DT      0.0000
    358 C3'       -5.1638     5.1463  2404.9128 C.3      735 DT      0.0000
    359 O3'       -4.5621     6.4189  2404.6455 O.3      735 DT      0.0000
    360 C2'       -4.6813     3.9960  2404.0194 C.3      735 DT      0.0000
    361 C1'       -3.3548     3.6466  2404.6595 C.3      735 DT      0.0000
    362 N1        -3.0059     2.2320  2404.4295 N.am     735 DT      0.0000
    363 C2        -1.6641     1.9163  2404.3079 C.2      735 DT      0.0000
    364 O2        -0.7979     2.7917  2404.3446 O.2      735 DT      0.0000
    365 N3        -1.3266     0.6007  2404.1405 N.am     735 DT      0.0000
    366 C4        -2.2655    -0.3821  2404.0919 C.2      735 DT      0.0000
    367 O4        -1.8644    -1.5697  2403.9064 O.2      735 DT      0.0000
    368 C5        -3.6384    -0.0385  2404.2403 C.2      735 DT      0.0000
    369 C7        -4.7085    -1.1029  2404.1882 C.3      735 DT      0.0000
    370 C6        -3.9512     1.2501  2404.4133 C.2      735 DT      0.0000
    371 H5'       -6.4335     4.5225  2407.6191 H        735 DT      0.0000
    372 H5''      -5.4818     3.0191  2407.5370 H        735 DT      0.0000
    373 H4'       -4.5201     5.4242  2406.9111 H        735 DT      0.0000
    374 H3'       -6.2479     5.2335  2404.8408 H        735 DT      0.0000
    375 H2'       -5.3714     3.1529  2404.0500 H        735 DT      0.0000
    376 H2''      -4.5365     4.3385  2402.9948 H        735 DT      0.0000
    377 H1'       -2.5606     4.3145  2404.3255 H        735 DT      0.0000
    378 H3        -0.3518     0.3523  2404.0503 H        735 DT      0.0000
    379 H6        -4.9881     1.5220  2404.5447 H        735 DT      0.0000
    380 H71       -5.1275    -1.1487  2403.1830 H        735 DT      0.0000
    381 H72       -5.4975    -0.8596  2404.8998 H        735 DT      0.0000
    382 H73       -4.2730    -2.0686  2404.4448 H        735 DT      0.0000
    383 P         -9.3257    -3.6623  2424.3672 P.3      741 DG      0.0000
    384 OP1      -10.7986    -3.4828  2424.3656 O.co2    741 DG      0.0000
    385 OP2       -8.7630    -2.6995  2425.4229 O.co2    741 DG      0.0000
    386 O5'       -8.7829    -5.1473  2424.5456 O.3      741 DG      0.0000
    387 C5'       -8.2712    -6.0537  2423.5456 C.3      741 DG      0.0000
    388 C4'       -6.9543    -6.6112  2424.0444 C.3      741 DG      0.0000
    389 O4'       -5.8551    -5.8316  2423.6252 O.3      741 DG      0.0000
    390 C3'       -6.7927    -6.8197  2425.5366 C.3      741 DG      0.0000
    391 O3'       -6.3995    -8.1834  2425.8486 O.3      741 DG      0.0000
    392 C2'       -5.7648    -5.7871  2425.9585 C.3      741 DG      0.0000
    393 C1'       -4.9595    -5.5555  2424.7028 C.3      741 DG      0.0000
    394 N9        -4.4561    -4.1702  2424.6738 N.ar     741 DG      0.0000
    395 C8        -5.1284    -2.9930  2424.9026 C.ar     741 DG      0.0000
    396 N7        -4.3763    -1.9193  2424.8129 N.ar     741 DG      0.0000
    397 C5        -3.1173    -2.4225  2424.4959 C.ar     741 DG      0.0000
    398 C6        -1.8742    -1.7815  2424.2700 C.2      741 DG      0.0000
    399 O6        -1.6230    -0.5763  2424.2913 O.2      741 DG      0.0000
    400 N1        -0.8298    -2.6191  2423.9885 N.am     741 DG      0.0000
    401 C2        -0.9535    -3.9064  2423.9278 C.2      741 DG      0.0000
    402 N2         0.1633    -4.4483  2423.6311 N.pl3    741 DG      0.0000
    403 N3        -2.1324    -4.6292  2424.1366 N.2      741 DG      0.0000
    404 C4        -3.1515    -3.8017  2424.4091 C.ar     741 DG      0.0000
    405 H5'       -8.9797    -6.8667  2423.3869 H        741 DG      0.0000
    406 H5''      -8.1122    -5.5171  2422.6102 H        741 DG      0.0000
    407 H4'       -6.8358    -7.5899  2423.5797 H        741 DG      0.0000
    408 H3'       -7.7395    -6.6011  2426.0305 H        741 DG      0.0000
    409 H2'       -6.2491    -4.8670  2426.2854 H        741 DG      0.0000
    410 H2''      -5.1293    -6.1844  2426.7500 H        741 DG      0.0000
    411 H1'       -4.1212    -6.2514  2424.6709 H        741 DG      0.0000
    412 H8        -6.1823    -2.9542  2425.1357 H        741 DG      0.0000
    413 H1         0.0801    -2.2143  2423.8201 H        741 DG      0.0000
    414 H21        0.9810    -3.8734  2423.4867 H        741 DG      0.0000
    415 H22        0.2293    -5.4521  2423.5406 H        741 DG      0.0000
    416 P         -5.8860    -8.6171  2427.2771 P.3      742 DT      0.0000
    417 OP1       -6.3783    -9.9461  2427.7888 O.co2    742 DT      0.0000
    418 OP2       -6.5487    -7.5745  2428.1958 O.co2    742 DT      0.0000
    419 O5'       -4.3492    -8.4162  2427.3057 O.3      742 DT      0.0000
    420 C5'       -3.4022    -9.5102  2427.1617 C.3      742 DT      0.0000
    421 C4'       -2.0418    -8.8474  2427.2192 C.3      742 DT      0.0000
    422 O4'       -2.1100    -7.4654  2426.9441 O.3      742 DT      0.0000
    423 C3'       -1.3058    -8.9397  2428.5319 C.3      742 DT      0.0000
    424 O3'       -0.1206    -9.7270  2428.3437 O.3      742 DT      0.0000
    425 C2'       -0.9685    -7.5014  2428.9242 C.3      742 DT      0.0000
    426 C1'       -0.9537    -6.8383  2427.5714 C.3      742 DT      0.0000
    427 N1        -1.2328    -5.4054  2427.6681 N.am     742 DT      0.0000
    428 C2        -0.1872    -4.5449  2427.4701 C.2      742 DT      0.0000
    429 O2         0.9532    -4.9358  2427.2319 O.2      742 DT      0.0000
    430 N3        -0.4582    -3.2055  2427.5512 N.am     742 DT      0.0000
    431 C4        -1.6940    -2.7198  2427.8071 C.2      742 DT      0.0000
    432 O4        -1.7887    -1.4653  2427.8524 O.2      742 DT      0.0000
    433 C5        -2.7765    -3.6356  2428.0068 C.2      742 DT      0.0000
    434 C7        -4.1580    -3.1398  2428.2867 C.3      742 DT      0.0000
    435 C6        -2.5023    -4.9438  2427.9253 C.2      742 DT      0.0000
    436 H5'       -3.5157   -10.2268  2427.9751 H        742 DT      0.0000
    437 H5''      -3.5406   -10.0052  2426.2005 H        742 DT      0.0000
    438 H4'       -1.4158    -9.3075  2426.4547 H        742 DT      0.0000
    439 H3'       -1.9436    -9.3959  2429.2890 H        742 DT      0.0000
    440 H2'       -1.7324    -7.0727  2429.5730 H        742 DT      0.0000
    441 H2''       0.0138    -7.4475  2429.3934 H        742 DT      0.0000
    442 H1'       -0.0318    -7.0404  2427.0261 H        742 DT      0.0000
    443 H3         0.2986    -2.5509  2427.4137 H        742 DT      0.0000
    444 H6        -3.3012    -5.6569  2428.0657 H        742 DT      0.0000
    445 H71       -4.7605    -3.2109  2427.3811 H        742 DT      0.0000
    446 H72       -4.1118    -2.1004  2428.6114 H        742 DT      0.0000
    447 H73       -4.6094    -3.7462  2429.0720 H        742 DT      0.0000
    448 P          0.2281   -10.6683  2429.6237 P.3      743 DG      0.0000
    449 OP1        0.7679   -11.9004  2428.9086 O.co2    743 DG      0.0000
    450 OP2       -0.9896   -10.9081  2430.3772 O.co2    743 DG      0.0000
    451 O5'        1.3859    -9.6924  2430.2332 O.3      743 DG      0.0000
    452 C5'        2.2830    -9.2573  2429.1426 C.3      743 DG      0.0000
    453 C4'        3.1128    -8.1207  2429.6626 C.3      743 DG      0.0000
    454 O4'        2.5921    -6.8309  2429.4821 O.3      743 DG      0.0000
    455 C3'        3.4336    -8.2635  2431.1707 C.3      743 DG      0.0000
    456 O3'        4.8707    -8.1813  2431.3295 O.3      743 DG      0.0000
    457 C2'        2.6204    -7.1660  2431.8233 C.3      743 DG      0.0000
    458 C1'        2.6238    -6.0920  2430.7417 C.3      743 DG      0.0000
    459 N9         1.5038    -5.1596  2430.9112 N.ar     743 DG      0.0000
    460 C8         0.2065    -5.4328  2431.2474 C.ar     743 DG      0.0000
    461 N7        -0.5716    -4.3764  2431.3332 N.ar     743 DG      0.0000
    462 C5         0.2863    -3.3296  2431.0032 C.ar     743 DG      0.0000
    463 C6         0.0521    -1.9279  2430.9088 C.2      743 DG      0.0000
    464 O6        -1.0077    -1.3136  2431.1011 O.2      743 DG      0.0000
    465 N1         1.1625    -1.1872  2430.5738 N.am     743 DG      0.0000
    466 C2         2.3743    -1.7662  2430.3500 C.2      743 DG      0.0000
    467 N2         3.3408    -0.8918  2430.0412 N.pl3    743 DG      0.0000
    468 N3         2.6422    -3.0682  2430.4210 N.2      743 DG      0.0000
    469 C4         1.5588    -3.7936  2430.7476 C.ar     743 DG      0.0000
    470 H5'        2.9293   -10.0820  2428.8421 H        743 DG      0.0000
    471 H5''       1.6918    -8.9225  2428.2902 H        743 DG      0.0000
    472 H4'        4.0644    -8.1550  2429.1321 H        743 DG      0.0000
    473 H3'        3.0845    -9.2332  2431.5254 H        743 DG      0.0000
    474 H2'        1.6076    -7.5016  2432.0462 H        743 DG      0.0000
    475 H2''       3.1141    -6.8054  2432.7257 H        743 DG      0.0000
    476 H1'        3.5588    -5.5349  2430.8006 H        743 DG      0.0000
    477 H8        -0.1503    -6.4361  2431.4281 H        743 DG      0.0000
    478 H1         1.0759    -0.1843  2430.4914 H        743 DG      0.0000
    479 H21        3.1318     0.0951  2429.9910 H        743 DG      0.0000
    480 H22        4.2787    -1.2194  2429.8585 H        743 DG      0.0000
    481 P          5.5544    -8.4018  2432.7180 P.3      744 DA      0.0000
    482 OP1        5.9225    -9.8059  2433.0733 O.co2    744 DA      0.0000
    483 OP2        4.3281    -7.9921  2433.6137 O.co2    744 DA      0.0000
    484 O5'        6.6118    -7.2466  2432.9671 O.3      744 DA      0.0000
    485 C5'        7.2394    -6.4676  2431.9380 C.3      744 DA      0.0000
    486 C4'        7.1448    -5.0265  2432.4124 C.3      744 DA      0.0000
    487 O4'        5.8137    -4.5655  2432.3220 O.3      744 DA      0.0000
    488 C3'        7.6137    -4.7524  2433.8414 C.3      744 DA      0.0000
    489 O3'        8.4838    -3.6029  2433.8937 O.3      744 DA      0.0000
    490 C2'        6.2860    -4.5327  2434.5768 C.3      744 DA      0.0000
    491 C1'        5.5366    -3.7639  2433.4992 C.3      744 DA      0.0000
    492 N9         4.0903    -3.6839  2433.7277 N.ar     744 DA      0.0000
    493 C8         3.1791    -4.6785  2433.9434 C.ar     744 DA      0.0000
    494 N7         1.9485    -4.2470  2434.1084 N.ar     744 DA      0.0000
    495 C5         2.0568    -2.8715  2433.9682 C.ar     744 DA      0.0000
    496 C6         1.0865    -1.8468  2434.0162 C.ar     744 DA      0.0000
    497 N6        -0.2148    -2.0490  2434.2359 N.pl3    744 DA      0.0000
    498 N1         1.5656    -0.5815  2433.8263 N.ar     744 DA      0.0000
    499 C2         2.8816    -0.3541  2433.6086 C.ar     744 DA      0.0000
    500 N3         3.8502    -1.2672  2433.5503 N.ar     744 DA      0.0000
    501 C4         3.3605    -2.5064  2433.7372 C.ar     744 DA      0.0000
    502 H5'        6.7148    -6.5929  2430.9908 H        744 DA      0.0000
    503 H5''       8.2841    -6.7596  2431.8302 H        744 DA      0.0000
    504 H4'        7.7519    -4.4173  2431.7426 H        744 DA      0.0000
    505 H3'        8.1243    -5.6278  2434.2428 H        744 DA      0.0000
    506 H2'        5.7950    -5.4744  2434.8223 H        744 DA      0.0000
    507 H2''       6.4281    -3.9210  2435.4677 H        744 DA      0.0000
    508 H1'        5.9575    -2.7650  2433.3847 H        744 DA      0.0000
    509 H8         3.4457    -5.7246  2433.9755 H        744 DA      0.0000
    510 H2         3.1777     0.6749  2433.4672 H        744 DA      0.0000
    511 H61       -0.6873    -2.9364  2434.1385 H        744 DA      0.0000
    512 H62       -0.8540    -1.2860  2434.0644 H        744 DA      0.0000
    513 P          9.6533    -3.4371  2435.0351 P.3      745 DA      0.0000
    514 OP1       11.0048    -3.3743  2434.3681 O.co2    745 DA      0.0000
    515 OP2        9.4121    -4.6343  2435.8660 O.co2    745 DA      0.0000
    516 O5'        9.4079    -1.9528  2435.5660 O.3      745 DA      0.0000
    517 C5'        9.5103    -0.7930  2434.7416 C.3      745 DA      0.0000
    518 C4'        8.5327     0.2451  2435.2639 C.3      745 DA      0.0000
    519 O4'        7.2264    -0.2567  2435.2921 O.3      745 DA      0.0000
    520 C3'        8.8123     0.8445  2436.6312 C.3      745 DA      0.0000
    521 O3'        9.0710     2.2462  2436.5534 O.3      745 DA      0.0000
    522 C2'        7.5824     0.4536  2437.4600 C.3      745 DA      0.0000
    523 C1'        6.5072     0.2420  2436.4662 C.3      745 DA      0.0000
    524 N9         5.4221    -0.7192  2436.7342 N.ar     745 DA      0.0000
    525 C8         5.4625    -2.0876  2436.8494 C.ar     745 DA      0.0000
    526 N7         4.2878    -2.6469  2437.0187 N.ar     745 DA      0.0000
    527 C5         3.4018    -1.5750  2436.9817 C.ar     745 DA      0.0000
    528 C6         1.9843    -1.5126  2437.1022 C.ar     745 DA      0.0000
    529 N6         1.1810    -2.5516  2437.2938 N.pl3    745 DA      0.0000
    530 N1         1.4356    -0.2584  2437.0040 N.ar     745 DA      0.0000
    531 C2         2.2302     0.8348  2436.8149 C.ar     745 DA      0.0000
    532 N3         3.5539     0.8473  2436.7071 N.ar     745 DA      0.0000
    533 C4         4.0784    -0.3913  2436.7989 C.ar     745 DA      0.0000
    534 H5'        9.2619    -1.0488  2433.7116 H        745 DA      0.0000
    535 H5''      10.5252    -0.3978  2434.7876 H        745 DA      0.0000
    536 H4'        8.5381     1.0698  2434.5512 H        745 DA      0.0000
    537 H3'        9.6878     0.3522  2437.0545 H        745 DA      0.0000
    538 H2'        7.7725    -0.4619  2438.0203 H        745 DA      0.0000
    539 H2''       7.3135     1.2622  2438.1396 H        745 DA      0.0000
    540 H1'        6.0649     1.2074  2436.2201 H        745 DA      0.0000
    541 H8         6.3812    -2.6536  2436.8046 H        745 DA      0.0000
    542 H2         1.7304     1.7897  2436.7457 H        745 DA      0.0000
    543 H61        1.5230    -3.4442  2437.6200 H        745 DA      0.0000
    544 H62        0.1941    -2.4461  2437.1070 H        745 DA      0.0000
    545 P         10.0938     3.0731  2437.5096 P.3      746 DT      0.0000
    546 OP1       10.9129     4.0818  2436.7123 O.co2    746 DT      0.0000
    547 OP2       10.8713     2.1684  2438.3302 O.co2    746 DT      0.0000
    548 O5'        9.0592     4.0593  2438.3233 O.3      746 DT      0.0000
    549 C5'        8.0189     4.5584  2437.3782 C.3      746 DT      0.0000
    550 C4'        6.7353     4.4891  2438.1660 C.3      746 DT      0.0000
    551 O4'        6.2588     3.1761  2438.3579 O.3      746 DT      0.0000
    552 C3'        6.8895     5.0729  2439.5826 C.3      746 DT      0.0000
    553 O3'        6.4165     6.4071  2439.5842 O.3      746 DT      0.0000
    554 C2'        6.1103     4.1145  2440.4798 C.3      746 DT      0.0000
    555 C1'        5.3248     3.3192  2439.5152 C.3      746 DT      0.0000
    556 N1         4.8741     1.9789  2439.8549 N.am     746 DT      0.0000
    557 C2         3.5020     1.7934  2439.9929 C.2      746 DT      0.0000
    558 O2         2.7462     2.7524  2439.9049 O.2      746 DT      0.0000
    559 N3         3.0445     0.5357  2440.2469 N.am     746 DT      0.0000
    560 C4         3.8755    -0.5413  2440.3670 C.2      746 DT      0.0000
    561 O4         3.3720    -1.6817  2440.6222 O.2      746 DT      0.0000
    562 C5         5.2832    -0.3299  2440.1954 C.2      746 DT      0.0000
    563 C7         6.2401    -1.4864  2440.2830 C.3      746 DT      0.0000
    564 C6         5.7289     0.9121  2439.9397 C.2      746 DT      0.0000
    565 H5'        8.2317     5.5840  2437.0766 H        746 DT      0.0000
    566 H5''       7.9610     3.9111  2436.5032 H        746 DT      0.0000
    567 H4'        5.9727     5.0607  2437.6368 H        746 DT      0.0000
    568 H3'        7.9417     5.0610  2439.8669 H        746 DT      0.0000
    569 H2'        6.7853     3.4791  2441.0532 H        746 DT      0.0000
    570 H2''       5.4489     4.6681  2441.1462 H        746 DT      0.0000
    571 H1'        4.4634     3.9069  2439.1979 H        746 DT      0.0000
    572 H3         2.0499     0.3939  2440.3506 H        746 DT      0.0000
    573 H6         6.7874     1.0729  2439.7975 H        746 DT      0.0000
    574 H71        5.6869    -2.4011  2440.4960 H        746 DT      0.0000
    575 H72        6.7677    -1.5935  2439.3352 H        746 DT      0.0000
    576 H73        6.9598    -1.3029  2441.0808 H        746 DT      0.0000
    577 P          6.5439     7.4882  2440.6909 P.3      747 DT      0.0000
    578 OP1        6.4074     8.9064  2440.0788 O.co2    747 DT      0.0000
    579 OP2        7.8740     7.2850  2441.3208 O.co2    747 DT      0.0000
    580 O5'        5.2156     7.3182  2441.5732 O.3      747 DT      0.0000
    581 C5'        4.0207     7.7380  2440.8614 C.3      747 DT      0.0000
    582 C4'        2.8309     7.1504  2441.5376 C.3      747 DT      0.0000
    583 O4'        2.8007     5.7287  2441.5142 O.3      747 DT      0.0000
    584 C3'        2.6621     7.5725  2443.0042 C.3      747 DT      0.0000
    585 O3'        1.3091     7.8917  2443.2682 O.3      747 DT      0.0000
    586 C2'        3.0453     6.2668  2443.7405 C.3      747 DT      0.0000
    587 C1'        2.3023     5.3039  2442.8370 C.3      747 DT      0.0000
    588 N1         2.6571     3.9286  2443.1347 N.am     747 DT      0.0000
    589 C2         1.6466     2.9824  2443.1895 C.2      747 DT      0.0000
    590 O2         0.4832     3.3410  2443.0010 O.2      747 DT      0.0000
    591 N3         1.9885     1.6864  2443.4554 N.am     747 DT      0.0000
    592 C4         3.2784     1.3041  2443.6624 C.2      747 DT      0.0000
    593 O4         3.5207     0.0835  2443.8857 O.2      747 DT      0.0000
    594 C5         4.3102     2.2853  2443.5973 C.2      747 DT      0.0000
    595 C7         5.7561     1.9415  2443.8073 C.3      747 DT      0.0000
    596 C6         3.9566     3.5534  2443.3362 C.2      747 DT      0.0000
    597 H5'        3.9495     8.8256  2440.8738 H        747 DT      0.0000
    598 H5''       4.0663     7.3863  2439.8307 H        747 DT      0.0000
    599 H4'        1.9499     7.4997  2440.9991 H        747 DT      0.0000
    600 H3'        3.3287     8.3940  2443.2666 H        747 DT      0.0000
    601 H2'        4.1208     6.0904  2443.7393 H        747 DT      0.0000
    602 H2''       2.6425     6.2504  2444.7532 H        747 DT      0.0000
    603 H1'        1.2251     5.4525  2442.9126 H        747 DT      0.0000
    604 H3         1.2596     0.9886  2443.4998 H        747 DT      0.0000
    605 H6         4.7285     4.3069  2443.2831 H        747 DT      0.0000
    606 H71        5.8511     0.8740  2444.0062 H        747 DT      0.0000
    607 H72        6.3234     2.1959  2442.9120 H        747 DT      0.0000
    608 H73        6.1441     2.5051  2444.6557 H        747 DT      0.0000
    609 P          0.5285     9.1099  2443.8762 P.3      748 DC      0.0000
    610 OP1       -0.2422     9.8621  2442.8082 O.co2    748 DC      0.0000
    611 OP2        1.5387     9.8928  2444.6111 O.co2    748 DC      0.0000
    612 O5'       -0.5678     8.2290  2444.7022 O.3      748 DC      0.0000
    613 C5'       -1.1219     7.3217  2443.6799 C.3      748 DC      0.0000
    614 C4'       -2.0981     6.4169  2444.3764 C.3      748 DC      0.0000
    615 O4'       -1.5732     5.1493  2444.6234 O.3      748 DC      0.0000
    616 C3'       -2.6876     6.9726  2445.6679 C.3      748 DC      0.0000
    617 O3'       -4.1065     7.0048  2445.5882 O.3      748 DC      0.0000
    618 C2'       -2.0415     6.0647  2446.7167 C.3      748 DC      0.0000
    619 C1'       -1.8253     4.7798  2446.0203 C.3      748 DC      0.0000
    620 N1        -0.6053     4.0373  2446.3524 N.am     748 DC      0.0000
    621 C2        -0.7711     2.6779  2446.6082 C.2      748 DC      0.0000
    622 O2        -1.8904     2.1565  2446.6127 O.2      748 DC      0.0000
    623 N3         0.3564     1.9437  2446.8820 N.2      748 DC      0.0000
    624 C4         1.5962     2.5121  2446.8721 C.2      748 DC      0.0000
    625 N4         2.6252     1.7187  2447.1489 N.pl3    748 DC      0.0000
    626 C5         1.7505     3.8881  2446.5941 C.2      748 DC      0.0000
    627 C6         0.6332     4.5960  2446.3293 C.2      748 DC      0.0000
    628 H5'       -1.6312     7.8964  2442.9063 H        748 DC      0.0000
    629 H5''      -0.3210     6.7307  2443.2357 H        748 DC      0.0000
    630 H4'       -2.9336     6.2772  2443.6905 H        748 DC      0.0000
    631 H3'       -2.3216     7.9892  2445.8112 H        748 DC      0.0000
    632 H2'       -1.0932     6.4827  2447.0546 H        748 DC      0.0000
    633 H2''      -2.7153     5.9265  2447.5622 H        748 DC      0.0000
    634 H1'       -2.7043     4.1404  2446.1012 H        748 DC      0.0000
    635 H5         2.7243     4.3551  2446.5935 H        748 DC      0.0000
    636 H6         0.7264     5.6451  2446.0902 H        748 DC      0.0000
    637 H41        2.4696     0.7408  2447.3481 H        748 DC      0.0000
    638 H42        3.5630     2.0934  2447.1603 H        748 DC      0.0000
    639 P         -5.1036     7.8609  2446.5403 P.3      749 DA      0.0000
    640 OP1       -6.3724     8.1061  2445.7465 O.co2    749 DA      0.0000
    641 OP2       -4.4228     9.1255  2446.8858 O.co2    749 DA      0.0000
    642 O5'       -5.3535     6.8794  2447.8373 O.3      749 DA      0.0000
    643 C5'       -5.8005     5.5206  2447.5421 C.3      749 DA      0.0000
    644 C4'       -5.8896     4.7163  2448.7973 C.3      749 DA      0.0000
    645 O4'       -4.7814     3.8443  2449.0395 O.3      749 DA      0.0000
    646 C3'       -5.9557     5.5268  2450.1026 C.3      749 DA      0.0000
    647 O3'       -6.4855     4.6891  2451.1325 O.3      749 DA      0.0000
    648 C2'       -4.4496     5.7771  2450.3172 C.3      749 DA      0.0000
    649 C1'       -4.0032     4.3227  2450.1339 C.3      749 DA      0.0000
    650 N9        -2.5539     4.2752  2450.0396 N.ar     749 DA      0.0000
    651 C8        -1.6355     5.2817  2449.9237 C.ar     749 DA      0.0000
    652 N7        -0.3749     4.8873  2449.9051 N.ar     749 DA      0.0000
    653 C5        -0.4738     3.5073  2450.0127 C.ar     749 DA      0.0000
    654 C6         0.5068     2.4853  2450.0472 C.ar     749 DA      0.0000
    655 N6         1.8085     2.6930  2449.9619 N.pl3    749 DA      0.0000
    656 N1         0.0405     1.2088  2450.1798 N.ar     749 DA      0.0000
    657 C2        -1.3015     0.9476  2450.2600 C.ar     749 DA      0.0000
    658 N3        -2.2792     1.8501  2450.2301 N.ar     749 DA      0.0000
    659 C4        -1.7981     3.1115  2450.1071 C.ar     749 DA      0.0000
    660 H5'       -6.7826     5.5604  2447.0709 H        749 DA      0.0000
    661 H5''      -5.0927     5.0483  2446.8608 H        749 DA      0.0000
    662 H4'       -6.7895     4.1041  2448.7384 H        749 DA      0.0000
    663 H3'       -6.5191     6.4529  2449.9889 H        749 DA      0.0000
    664 H2'       -4.0247     6.4433  2449.5664 H        749 DA      0.0000
    665 H2''      -4.2447     6.1325  2451.3271 H        749 DA      0.0000
    666 H1'       -4.2992     3.7669  2451.0235 H        749 DA      0.0000
    667 H8        -1.9195     6.3213  2449.8527 H        749 DA      0.0000
    668 H2        -1.5937    -0.0877  2450.3564 H        749 DA      0.0000
    669 H61        2.6247     2.1260  2450.1420 H        749 DA      0.0000
    670 H62        2.0384     3.6248  2449.6472 H        749 DA      0.0000
    671 P         -8.0588     4.4337  2451.2730 P.3      750 DC      0.0000
    672 OP1       -8.8175     4.7422  2450.0279 O.co2    750 DC      0.0000
    673 OP2       -8.4258     5.3355  2452.4159 O.co2    750 DC      0.0000
    674 O5'       -8.1513     2.8761  2451.5561 O.3      750 DC      0.0000
    675 C5'       -8.0964     1.9042  2450.4684 C.3      750 DC      0.0000
    676 C4'       -7.4840     0.6886  2451.1734 C.3      750 DC      0.0000
    677 O4'       -6.1489     1.0123  2451.4854 O.3      750 DC      0.0000
    678 C3'       -8.1771     0.3228  2452.4833 C.3      750 DC      0.0000
    679 O3'       -8.5522    -1.0716  2452.5512 O.3      750 DC      0.0000
    680 C2'       -7.1672     0.7335  2453.5655 C.3      750 DC      0.0000
    681 C1'       -5.8726     0.5279  2452.8893 C.3      750 DC      0.0000
    682 N1        -4.6944     1.3158  2453.2421 N.am     750 DC      0.0000
    683 C2        -3.4871     0.6201  2453.2152 C.2      750 DC      0.0000
    684 O2        -3.4227    -0.5851  2453.0083 O.2      750 DC      0.0000
    685 N3        -2.3530     1.3269  2453.4684 N.2      750 DC      0.0000
    686 C4        -2.3641     2.6615  2453.7017 C.2      750 DC      0.0000
    687 N4        -1.1885     3.2430  2453.9326 N.pl3    750 DC      0.0000
    688 C5        -3.6012     3.3628  2453.7083 C.2      750 DC      0.0000
    689 C6        -4.7162     2.6589  2453.4588 C.2      750 DC      0.0000
    690 H5'       -9.0915     1.6813  2450.0836 H        750 DC      0.0000
    691 H5''      -7.4437     2.2560  2449.6694 H        750 DC      0.0000
    692 H4'       -7.5024    -0.1689  2450.5007 H        750 DC      0.0000
    693 H3'       -9.0737     0.9336  2452.5892 H        750 DC      0.0000
    694 H2'       -7.3002     1.7766  2453.8525 H        750 DC      0.0000
    695 H2''      -7.2524     0.0828  2454.4357 H        750 DC      0.0000
    696 H1'       -5.6225    -0.5329  2452.8760 H        750 DC      0.0000
    697 H5        -3.6419     4.4237  2453.9068 H        750 DC      0.0000
    698 H6        -5.6636     3.1764  2453.4291 H        750 DC      0.0000
    699 H41       -0.3419     2.6923  2453.9216 H        750 DC      0.0000
    700 H42       -1.1435     4.2347  2454.1188 H        750 DC      0.0000
    701 P          8.4826    -0.3029  2455.5107 P.3      750 DG      0.0000
    702 OP1        9.9675    -0.2889  2455.6895 O.co2    750 DG      0.0000
    703 OP2        8.0035     0.6527  2454.4259 O.co2    750 DG      0.0000
    704 O5'        7.9725    -1.8540  2455.3035 O.3      750 DG      0.0000
    705 C5'        7.2674    -2.5264  2456.3992 C.3      750 DG      0.0000
    706 C4'        6.1711    -3.3792  2455.7649 C.3      750 DG      0.0000
    707 O4'        4.9564    -2.6866  2455.6691 O.3      750 DG      0.0000
    708 C3'        6.4928    -3.8778  2454.3586 C.3      750 DG      0.0000
    709 O3'        6.0606    -5.2320  2454.0916 O.3      750 DG      0.0000
    710 C2'        5.7647    -2.8652  2453.4563 C.3      750 DG      0.0000
    711 C1'        4.5163    -2.5967  2454.2801 C.3      750 DG      0.0000
    712 N9         3.9795    -1.2526  2454.0068 N.ar     750 DG      0.0000
    713 C8         4.6783    -0.0792  2453.8502 C.ar     750 DG      0.0000
    714 N7         3.9224     0.9638  2453.6318 N.ar     750 DG      0.0000
    715 C5         2.6325     0.4467  2453.6566 C.ar     750 DG      0.0000
    716 C6         1.3677     1.0740  2453.5001 C.2      750 DG      0.0000
    717 O6         1.1588     2.2795  2453.3033 O.2      750 DG      0.0000
    718 N1         0.2977     0.2178  2453.5870 N.am     750 DG      0.0000
    719 C2         0.4404    -1.1121  2453.8077 C.2      750 DG      0.0000
    720 N2        -0.6866    -1.8160  2453.8710 N.pl3    750 DG      0.0000
    721 N3         1.6058    -1.7515  2453.9654 N.2      750 DG      0.0000
    722 C4         2.6552    -0.9109  2453.8821 C.ar     750 DG      0.0000
    723 H5'        7.9582    -3.1586  2456.9570 H        750 DG      0.0000
    724 H5''       6.8231    -1.7857  2457.0641 H        750 DG      0.0000
    725 H4'        6.0121    -4.2495  2456.4016 H        750 DG      0.0000
    726 H3'        7.5668    -3.8035  2454.1881 H        750 DG      0.0000
    727 H2'        6.3537    -1.9592  2453.3136 H        750 DG      0.0000
    728 H2''       5.5072    -3.3152  2452.4976 H        750 DG      0.0000
    729 H1'        3.7594    -3.3537  2454.0749 H        750 DG      0.0000
    730 H8         5.7556    -0.0245  2453.9029 H        750 DG      0.0000
    731 H1        -0.6336     0.5943  2453.4822 H        750 DG      0.0000
    732 H21       -1.5775    -1.3544  2453.7559 H        750 DG      0.0000
    733 H22       -0.6513    -2.8121  2454.0342 H        750 DG      0.0000
    734 P          5.6791    -5.5506  2452.5681 P.3      749 DT      0.0000
    735 OP1        5.8924    -6.9882  2452.1772 O.co2    749 DT      0.0000
    736 OP2        6.6331    -4.6560  2451.8676 O.co2    749 DT      0.0000
    737 O5'        4.1284    -5.1695  2452.4372 O.3      749 DT      0.0000
    738 C5'        3.1626    -6.2361  2452.7049 C.3      749 DT      0.0000
    739 C4'        1.8888    -5.9289  2451.9478 C.3      749 DT      0.0000
    740 O4'        1.5827    -4.5462  2451.9205 O.3      749 DT      0.0000
    741 C3'        1.9388    -6.3698  2450.4931 C.3      749 DT      0.0000
    742 O3'        0.6930    -6.9067  2449.9980 O.3      749 DT      0.0000
    743 C2'        2.3323    -5.1006  2449.7703 C.3      749 DT      0.0000
    744 C1'        1.4919    -4.1017  2450.5484 C.3      749 DT      0.0000
    745 N1         2.1434    -2.7912  2450.3970 N.am     749 DT      0.0000
    746 C2         1.3163    -1.6777  2450.5038 C.2      749 DT      0.0000
    747 O2         0.1124    -1.8136  2450.6936 O.2      749 DT      0.0000
    748 N3         1.9044    -0.4497  2450.3837 N.am     749 DT      0.0000
    749 C4         3.2423    -0.3091  2450.1661 C.2      749 DT      0.0000
    750 O4         3.6997     0.8774  2450.0685 O.2      749 DT      0.0000
    751 C5         4.0635    -1.4678  2450.0597 C.2      749 DT      0.0000
    752 C7         5.5408    -1.3247  2449.8308 C.3      749 DT      0.0000
    753 C6         3.4837    -2.6648  2450.1815 C.2      749 DT      0.0000
    754 H5'        3.5676    -7.1914  2452.3711 H        749 DT      0.0000
    755 H5''       2.9522    -6.2804  2453.7735 H        749 DT      0.0000
    756 H4'        1.0663    -6.4519  2452.4358 H        749 DT      0.0000
    757 H3'        2.7260    -7.1135  2450.3691 H        749 DT      0.0000
    758 H2'        3.3986    -4.8940  2449.8618 H        749 DT      0.0000
    759 H2''       2.0289    -5.1362  2448.7239 H        749 DT      0.0000
    760 H1'        0.4600    -4.0825  2450.1977 H        749 DT      0.0000
    761 H3         1.3304     0.3780  2450.4583 H        749 DT      0.0000
    762 H6         4.0915    -3.5544  2450.1073 H        749 DT      0.0000
    763 H71        5.7976    -0.2676  2449.7621 H        749 DT      0.0000
    764 H72        6.0825    -1.7766  2450.6616 H        749 DT      0.0000
    765 H73        5.8150    -1.8262  2448.9026 H        749 DT      0.0000
    766 P          1.0490    -8.3287  2449.2196 P.3      748 DG      0.0000
    767 OP1        0.9075    -9.5341  2450.0909 O.co2    748 DG      0.0000
    768 OP2        2.4416    -8.0136  2448.8141 O.co2    748 DG      0.0000
    769 O5'       -0.1277    -8.3710  2448.1388 O.3      748 DG      0.0000
    770 C5'       -1.4516    -8.7845  2448.5623 C.3      748 DG      0.0000
    771 C4'       -2.3734    -7.6571  2448.1145 C.3      748 DG      0.0000
    772 O4'       -1.7649    -6.4102  2448.3852 O.3      748 DG      0.0000
    773 C3'       -2.7240    -7.6826  2446.6268 C.3      748 DG      0.0000
    774 O3'       -4.1246    -7.7136  2446.4183 O.3      748 DG      0.0000
    775 C2'       -2.0035    -6.4770  2446.0501 C.3      748 DG      0.0000
    776 C1'       -1.9077    -5.5467  2447.2362 C.3      748 DG      0.0000
    777 N9        -0.7490    -4.6583  2447.1127 N.ar     748 DG      0.0000
    778 C8         0.5653    -4.9957  2446.9538 C.ar     748 DG      0.0000
    779 N7         1.3693    -3.9634  2446.8757 N.ar     748 DG      0.0000
    780 C5         0.5247    -2.8658  2447.0133 C.ar     748 DG      0.0000
    781 C6         0.7805    -1.4692  2447.0227 C.2      748 DG      0.0000
    782 O6         1.8706    -0.9151  2446.9237 O.2      748 DG      0.0000
    783 N1        -0.3307    -0.6889  2447.1717 N.am     748 DG      0.0000
    784 C2        -1.5881    -1.2265  2447.3046 C.2      748 DG      0.0000
    785 N2        -2.5845    -0.3510  2447.4402 N.pl3    748 DG      0.0000
    786 N3        -1.8970    -2.5272  2447.3089 N.2      748 DG      0.0000
    787 C4        -0.7860    -3.2879  2447.1582 C.ar     748 DG      0.0000
    788 H5'       -1.7322    -9.7227  2448.0835 H        748 DG      0.0000
    789 H5''      -1.4846    -8.8901  2449.6466 H        748 DG      0.0000
    790 H4'       -3.2984    -7.7205  2448.6875 H        748 DG      0.0000
    791 H3'       -2.2922    -8.5822  2446.1882 H        748 DG      0.0000
    792 H2'       -1.0137    -6.7492  2445.6837 H        748 DG      0.0000
    793 H2''      -2.5943    -6.0228  2445.2545 H        748 DG      0.0000
    794 H1'       -2.8212    -4.9583  2447.3233 H        748 DG      0.0000
    795 H8         0.9097    -6.0177  2446.8977 H        748 DG      0.0000
    796 H1        -0.2247     0.3155  2447.1846 H        748 DG      0.0000
    797 H21       -2.3894     0.6400  2447.4412 H        748 DG      0.0000
    798 H22       -3.5343    -0.6788  2447.5420 H        748 DG      0.0000
    799 P         -5.1456    -6.8744  2445.5520 P.3      747 DA      0.0000
    800 OP1       -6.4477    -6.6576  2446.3334 O.co2    747 DA      0.0000
    801 OP2       -5.3940    -7.6874  2444.3593 O.co2    747 DA      0.0000
    802 O5'       -4.4855    -5.3952  2445.3772 O.3      747 DA      0.0000
    803 C5'       -4.7841    -4.5265  2446.5337 C.3      747 DA      0.0000
    804 C4'       -5.6004    -3.3727  2446.0058 C.3      747 DA      0.0000
    805 O4'       -4.8246    -2.2225  2445.7836 O.3      747 DA      0.0000
    806 C3'       -6.2673    -3.6787  2444.6653 C.3      747 DA      0.0000
    807 O3'       -7.5825    -3.1828  2444.5902 O.3      747 DA      0.0000
    808 C2'       -5.2538    -3.1455  2443.6688 C.3      747 DA      0.0000
    809 C1'       -4.4556    -2.0973  2444.3926 C.3      747 DA      0.0000
    810 N9        -3.0096    -2.2629  2444.1671 N.ar     747 DA      0.0000
    811 C8        -2.2892    -3.4229  2443.9807 C.ar     747 DA      0.0000
    812 N7        -1.0041    -3.2368  2443.7849 N.ar     747 DA      0.0000
    813 C5        -0.8658    -1.8571  2443.8717 C.ar     747 DA      0.0000
    814 C6         0.2710    -1.0222  2443.7661 C.ar     747 DA      0.0000
    815 N6         1.4957    -1.4707  2443.5536 N.pl3    747 DA      0.0000
    816 N1         0.0454     0.3149  2443.8898 N.ar     747 DA      0.0000
    817 C2        -1.2090     0.8065  2444.1143 C.ar     747 DA      0.0000
    818 N3        -2.3168     0.0771  2444.2302 N.ar     747 DA      0.0000
    819 C4        -2.0799    -1.2500  2444.0941 C.ar     747 DA      0.0000
    820 H5'       -5.3531    -5.0785  2447.2817 H        747 DA      0.0000
    821 H5''      -3.8565    -4.1566  2446.9703 H        747 DA      0.0000
    822 H4'       -6.3760    -3.1337  2446.7335 H        747 DA      0.0000
    823 H3'       -6.3106    -4.7620  2444.5522 H        747 DA      0.0000
    824 H2'       -5.7638    -2.7054  2442.8119 H        747 DA      0.0000
    825 H2''      -4.5977    -3.9507  2443.3382 H        747 DA      0.0000
    826 H1'       -4.7583    -1.1134  2444.0344 H        747 DA      0.0000
    827 H8        -2.7434    -4.4027  2443.9946 H        747 DA      0.0000
    828 H2        -1.3109     1.8777  2444.2056 H        747 DA      0.0000
    829 H61        2.3037    -0.9531  2443.8690 H        747 DA      0.0000
    830 H62        1.6261    -2.3463  2443.0674 H        747 DA      0.0000
    831 P         -8.3785    -2.5046  2443.4056 P.3      746 DA      0.0000
    832 OP1       -9.7120    -1.8926  2443.9255 O.co2    746 DA      0.0000
    833 OP2       -8.6920    -3.6309  2442.4719 O.co2    746 DA      0.0000
    834 O5'       -7.5225    -1.2813  2442.9029 O.3      746 DA      0.0000
    835 C5'       -7.8334     0.0516  2443.3587 C.3      746 DA      0.0000
    836 C4'       -6.8785     0.9925  2442.6568 C.3      746 DA      0.0000
    837 O4'       -5.5732     0.5033  2442.5360 O.3      746 DA      0.0000
    838 C3'       -7.3296     1.3801  2441.2493 C.3      746 DA      0.0000
    839 O3'       -7.6479     2.7842  2441.2178 O.3      746 DA      0.0000
    840 C2'       -6.2025     0.8696  2440.3497 C.3      746 DA      0.0000
    841 C1'       -5.0032     0.9079  2441.2475 C.3      746 DA      0.0000
    842 N9        -3.9352    -0.0402  2440.9479 N.ar     746 DA      0.0000
    843 C8        -4.0076    -1.4041  2440.7531 C.ar     746 DA      0.0000
    844 N7        -2.8407    -1.9730  2440.5477 N.ar     746 DA      0.0000
    845 C5        -1.9384    -0.9299  2440.6222 C.ar     746 DA      0.0000
    846 C6        -0.5324    -0.8873  2440.4887 C.ar     746 DA      0.0000
    847 N6         0.2210    -1.9555  2440.2456 N.pl3    746 DA      0.0000
    848 N1         0.0311     0.3545  2440.6376 N.ar     746 DA      0.0000
    849 C2        -0.7058     1.4533  2440.8901 C.ar     746 DA      0.0000
    850 N3        -2.0346     1.4891  2441.0290 N.ar     746 DA      0.0000
    851 C4        -2.5869     0.2642  2440.8817 C.ar     746 DA      0.0000
    852 H5'       -8.8626     0.3039  2443.1036 H        746 DA      0.0000
    853 H5''      -7.6922     0.1169  2444.4375 H        746 DA      0.0000
    854 H4'       -6.8301     1.9076  2443.2469 H        746 DA      0.0000
    855 H3'       -8.2344     0.8196  2441.0142 H        746 DA      0.0000
    856 H2'       -6.4038    -0.1464  2440.0098 H        746 DA      0.0000
    857 H2''      -6.0629     1.5358  2439.4984 H        746 DA      0.0000
    858 H1'       -4.6060     1.9212  2441.3086 H        746 DA      0.0000
    859 H8        -4.9373    -1.9535  2440.7681 H        746 DA      0.0000
    860 H2        -0.1756     2.3890  2440.9892 H        746 DA      0.0000
    861 H61        1.1843    -1.8801  2440.5396 H        746 DA      0.0000
    862 H62       -0.1443    -2.7841  2439.7983 H        746 DA      0.0000
    863 P         -8.1394     3.4417  2439.8328 P.3      745 DT      0.0000
    864 OP1       -8.7611     4.8031  2439.8910 O.co2    745 DT      0.0000
    865 OP2       -9.0268     2.3534  2439.3202 O.co2    745 DT      0.0000
    866 O5'       -6.6417     3.6420  2439.1297 O.3      745 DT      0.0000
    867 C5'       -5.7054     4.1209  2440.1420 C.3      745 DT      0.0000
    868 C4'       -4.5644     4.8046  2439.4591 C.3      745 DT      0.0000
    869 O4'       -3.4491     3.9840  2439.2786 O.3      745 DT      0.0000
    870 C3'       -4.9124     5.3868  2438.0978 C.3      745 DT      0.0000
    871 O3'       -4.2506     6.6293  2437.8305 O.3      745 DT      0.0000
    872 C2'       -4.4853     4.2148  2437.2045 C.3      745 DT      0.0000
    873 C1'       -3.1770     3.8026  2437.8445 C.3      745 DT      0.0000
    874 N1        -2.8959     2.3729  2437.6145 N.am     745 DT      0.0000
    875 C2        -1.5707     1.9935  2437.4929 C.2      745 DT      0.0000
    876 O2        -0.6638     2.8266  2437.5297 O.2      745 DT      0.0000
    877 N3        -1.2964     0.6633  2437.3255 N.am     745 DT      0.0000
    878 C4        -2.2812    -0.2736  2437.2770 C.2      745 DT      0.0000
    879 O4        -1.9372    -1.4790  2437.0915 O.2      745 DT      0.0000
    880 C5        -3.6361     0.1352  2437.4254 C.2      745 DT      0.0000
    881 C7        -4.7557    -0.8770  2437.3733 C.3      745 DT      0.0000
    882 C6        -3.8870     1.4371  2437.5984 C.2      745 DT      0.0000
    883 H5'       -6.2104     4.8243  2440.8041 H        745 DT      0.0000
    884 H5''      -5.3315     3.2772  2440.7220 H        745 DT      0.0000
    885 H4'       -4.2562     5.6336  2440.0961 H        745 DT      0.0000
    886 H3'       -5.9911     5.5256  2438.0258 H        745 DT      0.0000
    887 H2'       -5.2149     3.4056  2437.2351 H        745 DT      0.0000
    888 H2''      -4.3244     4.5500  2436.1799 H        745 DT      0.0000
    889 H1'       -2.3519     4.4318  2437.5105 H        745 DT      0.0000
    890 H3        -0.3346     0.3687  2437.2354 H        745 DT      0.0000
    891 H6        -4.9098     1.7583  2437.7297 H        745 DT      0.0000
    892 H71       -5.1764    -0.9027  2436.3681 H        745 DT      0.0000
    893 H72       -5.5323    -0.5963  2438.0848 H        745 DT      0.0000
    894 H73       -4.3669    -1.8624  2437.6298 H        745 DT      0.0000
    895 P         -4.4984     7.2563  2436.3406 P.3      744 DT      0.0000
    896 OP1       -5.2849     8.5601  2436.4886 O.co2    744 DT      0.0000
    897 OP2       -5.3564     6.2217  2435.6708 O.co2    744 DT      0.0000
    898 O5'       -3.1100     7.4797  2435.6886 O.3      744 DT      0.0000
    899 C5'       -1.9314     7.7704  2436.4400 C.3      744 DT      0.0000
    900 C4'       -0.7541     7.2322  2435.6920 C.3      744 DT      0.0000
    901 O4'       -0.5768     5.8426  2435.6350 O.3      744 DT      0.0000
    902 C3'       -0.5750     7.6825  2434.2259 C.3      744 DT      0.0000
    903 O3'        0.8507     7.7448  2434.1222 O.3      744 DT      0.0000
    904 C2'       -1.1566     6.4855  2433.4622 C.3      744 DT      0.0000
    905 C1'       -0.4361     5.4018  2434.2379 C.3      744 DT      0.0000
    906 N1        -1.0034     4.0545  2434.1317 N.am     744 DT      0.0000
    907 C2        -0.0708     3.0085  2434.1311 C.2      744 DT      0.0000
    908 O2         1.1401     3.2356  2434.1741 O.2      744 DT      0.0000
    909 N3        -0.5644     1.7366  2434.0776 N.am     744 DT      0.0000
    910 C4        -1.8989     1.4648  2434.0179 C.2      744 DT      0.0000
    911 O4        -2.2570     0.2502  2433.9555 O.2      744 DT      0.0000
    912 C5        -2.8231     2.5449  2434.0261 C.2      744 DT      0.0000
    913 C7        -4.3087     2.2574  2433.9647 C.3      744 DT      0.0000
    914 C6        -2.3359     3.7873  2434.0926 C.2      744 DT      0.0000
    915 H5'       -1.8288     8.8487  2436.5622 H        744 DT      0.0000
    916 H5''      -1.9934     7.2944  2437.4185 H        744 DT      0.0000
    917 H4'        0.1207     7.6128  2436.2192 H        744 DT      0.0000
    918 H3'       -1.0697     8.6265  2433.9972 H        744 DT      0.0000
    919 H2'       -0.8848     6.4929  2432.4066 H        744 DT      0.0000
    920 H2''      -2.2364     6.4170  2433.5938 H        744 DT      0.0000
    921 H1'        0.6174     5.3837  2433.9589 H        744 DT      0.0000
    922 H3         0.0867     0.9646  2434.0825 H        744 DT      0.0000
    923 H6        -3.0300     4.6144  2434.1163 H        744 DT      0.0000
    924 H71       -4.4692     1.1804  2433.9159 H        744 DT      0.0000
    925 H72       -4.7333     2.7283  2433.0781 H        744 DT      0.0000
    926 H73       -4.7933     2.6569  2434.8557 H        744 DT      0.0000
    927 P          1.6733     8.3928  2432.9759 P.3      743 DC      0.0000
    928 OP1        2.7445     9.2993  2433.5851 O.co2    743 DC      0.0000
    929 OP2        0.7009     9.2190  2432.1941 O.co2    743 DC      0.0000
    930 O5'        2.2760     7.0721  2432.2365 O.3      743 DC      0.0000
    931 C5'        3.3567     6.3978  2432.9610 C.3      743 DC      0.0000
    932 C4'        4.2846     5.8453  2431.9105 C.3      743 DC      0.0000
    933 O4'        4.0584     4.4768  2431.6652 O.3      743 DC      0.0000
    934 C3'        4.2081     6.5325  2430.5461 C.3      743 DC      0.0000
    935 O3'        5.4477     6.5892  2429.8368 O.3      743 DC      0.0000
    936 C2'        3.1289     5.6837  2429.8600 C.3      743 DC      0.0000
    937 C1'        3.4128     4.2859  2430.4065 C.3      743 DC      0.0000
    938 N1         2.1204     3.5707  2430.5243 N.am     743 DC      0.0000
    939 C2         2.1666     2.1774  2430.5416 C.2      743 DC      0.0000
    940 O2         3.2447     1.5715  2430.4729 O.2      743 DC      0.0000
    941 N3         0.9747     1.5125  2430.6448 N.2      743 DC      0.0000
    942 C4        -0.2139     2.1670  2430.7156 C.2      743 DC      0.0000
    943 N4        -1.3500     1.4737  2430.8175 N.pl3    743 DC      0.0000
    944 C5        -0.2328     3.5895  2430.6904 C.2      743 DC      0.0000
    945 C6         0.9385     4.2419  2430.5968 C.2      743 DC      0.0000
    946 H5'        3.8856     7.1077  2433.5970 H        743 DC      0.0000
    947 H5''       2.9512     5.5860  2433.5649 H        743 DC      0.0000
    948 H4'        5.3047     5.9523  2432.2793 H        743 DC      0.0000
    949 H3'        3.8299     7.5458  2430.6803 H        743 DC      0.0000
    950 H2'        3.2357     5.7120  2428.7756 H        743 DC      0.0000
    951 H2''       2.1340     6.0162  2430.1559 H        743 DC      0.0000
    952 H1'        4.0744     3.7485  2429.7272 H        743 DC      0.0000
    953 H5        -1.1654     4.1315  2430.7452 H        743 DC      0.0000
    954 H6         0.9420     5.3218  2430.5787 H        743 DC      0.0000
    955 H41       -1.3255     0.4642  2430.8382 H        743 DC      0.0000
    956 H42       -2.2342     1.9587  2430.8739 H        743 DC      0.0000
    957 P          5.6334     6.4471  2428.2048 P.3      742 DA      0.0000
    958 OP1        6.9358     7.1124  2427.8153 O.co2    742 DA      0.0000
    959 OP2        4.4134     7.0806  2427.6347 O.co2    742 DA      0.0000
    960 O5'        5.8119     4.8694  2428.0393 O.3      742 DA      0.0000
    961 C5'        7.0803     4.2641  2428.5047 C.3      742 DA      0.0000
    962 C4'        7.1738     3.0273  2427.6274 C.3      742 DA      0.0000
    963 O4'        6.0650     2.1592  2427.8948 O.3      742 DA      0.0000
    964 C3'        7.0712     3.3356  2426.1230 C.3      742 DA      0.0000
    965 O3'        7.5300     2.2496  2425.3340 O.3      742 DA      0.0000
    966 C2'        5.5430     3.3561  2425.9355 C.3      742 DA      0.0000
    967 C1'        5.2995     2.0206  2426.6902 C.3      742 DA      0.0000
    968 N9         3.8495     1.9425  2426.8356 N.ar     742 DA      0.0000
    969 C8         2.9758     3.0043  2426.9085 C.ar     742 DA      0.0000
    970 N7         1.7234     2.6397  2427.0231 N.ar     742 DA      0.0000
    971 C5         1.7873     1.2347  2427.0167 C.ar     742 DA      0.0000
    972 C6         0.7619     0.2547  2427.1167 C.ar     742 DA      0.0000
    973 N6        -0.5361     0.5470  2427.2395 N.pl3    742 DA      0.0000
    974 N1         1.2078    -1.0322  2427.0815 N.ar     742 DA      0.0000
    975 C2         2.5250    -1.3294  2426.9626 C.ar     742 DA      0.0000
    976 N3         3.5375    -0.4624  2426.8712 N.ar     742 DA      0.0000
    977 C4         3.0855     0.8036  2426.8987 C.ar     742 DA      0.0000
    978 H5'        7.9242     4.9336  2428.3380 H        742 DA      0.0000
    979 H5''       7.0112     3.9860  2429.5563 H        742 DA      0.0000
    980 H4'        8.1074     2.5030  2427.8314 H        742 DA      0.0000
    981 H3'        7.5417     4.2811  2425.8534 H        742 DA      0.0000
    982 H2'        5.0666     4.2100  2426.4172 H        742 DA      0.0000
    983 H2''       5.2654     3.2807  2424.8842 H        742 DA      0.0000
    984 H1'        5.6674     1.1801  2426.1018 H        742 DA      0.0000
    985 H8         3.2924     4.0363  2426.8745 H        742 DA      0.0000
    986 H2         2.7833    -2.3777  2426.9394 H        742 DA      0.0000
    987 H61       -0.8365     1.5110  2427.2643 H        742 DA      0.0000
    988 H62       -1.2168    -0.1960  2427.3076 H        742 DA      0.0000
    989 P          8.6113     2.4748  2424.1930 P.3      741 DC      0.0000
    990 OP1        9.9148     2.4336  2424.9733 O.co2    741 DC      0.0000
    991 OP2        8.4144     3.7348  2423.4674 O.co2    741 DC      0.0000
    992 O5'        8.2940     1.1898  2423.2172 O.3      741 DC      0.0000
    993 C5'        8.2659    -0.1287  2423.8862 C.3      741 DC      0.0000
    994 C4'        7.1948    -0.9687  2423.2422 C.3      741 DC      0.0000
    995 O4'        5.9270    -0.8686  2423.8793 O.3      741 DC      0.0000
    996 C3'        6.9614    -0.6111  2421.7644 C.3      741 DC      0.0000
    997 O3'        6.5940    -1.7198  2420.9530 O.3      741 DC      0.0000
    998 C2'        5.7253     0.3324  2421.9300 C.3      741 DC      0.0000
    999 C1'        4.9546    -0.7063  2422.8256 C.3      741 DC      0.0000
   1000 N1         3.6423    -0.1645  2423.0635 N.am     741 DC      0.0000
   1001 C2         2.6147    -1.0380  2423.3806 C.2      741 DC      0.0000
   1002 O2         2.6371    -2.2659  2423.5211 O.2      741 DC      0.0000
   1003 N3         1.3668    -0.5154  2423.5788 N.2      741 DC      0.0000
   1004 C4         1.1154     0.8240  2423.4629 C.2      741 DC      0.0000
   1005 N4        -0.1237     1.2924  2423.6789 N.pl3    741 DC      0.0000
   1006 C5         2.1799     1.7079  2423.1332 C.2      741 DC      0.0000
   1007 C6         3.3913     1.1729  2422.9415 C.2      741 DC      0.0000
   1008 H5'        9.2335    -0.6181  2423.7747 H        741 DC      0.0000
   1009 H5''       8.0416     0.0024  2424.9448 H        741 DC      0.0000
   1010 H4'        7.5122    -2.0104  2423.2889 H        741 DC      0.0000
   1011 H3'        7.8147    -0.0778  2421.3453 H        741 DC      0.0000
   1012 H2'        5.9566     1.2636  2422.4471 H        741 DC      0.0000
   1013 H2''       5.2173     0.5084  2420.9818 H        741 DC      0.0000
   1014 H1'        4.8593    -1.6455  2422.2807 H        741 DC      0.0000
   1015 H5         2.0164     2.7715  2423.0411 H        741 DC      0.0000
   1016 H6         4.2082     1.8285  2422.6783 H        741 DC      0.0000
   1017 H41       -0.8696     0.6553  2423.9194 H        741 DC      0.0000
   1018 H42       -0.3103     2.2819  2423.6010 H        741 DC      0.0000
   1019 P         -9.4898    -3.2132  2457.5522 P.3      751 DG      0.0000
   1020 OP1      -10.9524    -2.9636  2457.5507 O.co2    751 DG      0.0000
   1021 OP2       -8.8818    -2.2783  2458.6079 O.co2    751 DG      0.0000
   1022 O5'       -9.0185    -4.7224  2457.7306 O.3      751 DG      0.0000
   1023 C5'       -8.5506    -5.6522  2456.7306 C.3      751 DG      0.0000
   1024 C4'       -7.2618    -6.2718  2457.2294 C.3      751 DG      0.0000
   1025 O4'       -6.1267    -5.5456  2456.8103 O.3      751 DG      0.0000
   1026 C3'       -7.1104    -6.4879  2458.7216 C.3      751 DG      0.0000
   1027 O3'       -6.7827    -7.8687  2459.0336 O.3      751 DG      0.0000
   1028 C2'       -6.0344    -5.5054  2459.1435 C.3      751 DG      0.0000
   1029 C1'       -5.2189    -5.3125  2457.8878 C.3      751 DG      0.0000
   1030 N9        -4.6500    -3.9529  2457.8588 N.ar     751 DG      0.0000
   1031 C8        -5.2654    -2.7449  2458.0877 C.ar     751 DG      0.0000
   1032 N7        -4.4629    -1.7083  2457.9980 N.ar     751 DG      0.0000
   1033 C5        -3.2293    -2.2710  2457.6810 C.ar     751 DG      0.0000
   1034 C6        -1.9570    -1.6901  2457.4550 C.2      751 DG      0.0000
   1035 O6        -1.6486    -0.4982  2457.4763 O.2      751 DG      0.0000
   1036 N1        -0.9538    -2.5765  2457.1735 N.am     751 DG      0.0000
   1037 C2        -1.1388    -3.8564  2457.1129 C.2      751 DG      0.0000
   1038 N2        -0.0491    -4.4511  2456.8161 N.pl3    751 DG      0.0000
   1039 N3        -2.3509    -4.5222  2457.3216 N.2      751 DG      0.0000
   1040 C4        -3.3293    -3.6470  2457.5942 C.ar     751 DG      0.0000
   1041 H5'       -9.2971    -6.4304  2456.5719 H        751 DG      0.0000
   1042 H5''      -8.3662    -5.1238  2455.7952 H        751 DG      0.0000
   1043 H4'       -7.1901    -7.2552  2456.7647 H        751 DG      0.0000
   1044 H3'       -8.0456    -6.2243  2459.2156 H        751 DG      0.0000
   1045 H2'       -6.4742    -4.5633  2459.4705 H        751 DG      0.0000
   1046 H2''      -5.4186    -5.9326  2459.9350 H        751 DG      0.0000
   1047 H1'       -4.4148    -6.0476  2457.8559 H        751 DG      0.0000
   1048 H8        -6.3162    -2.6558  2458.3207 H        751 DG      0.0000
   1049 H1        -0.0256    -2.2156  2457.0051 H        751 DG      0.0000
   1050 H21        0.7951    -3.9158  2456.6717 H        751 DG      0.0000
   1051 H22       -0.0311    -5.4568  2456.7256 H        751 DG      0.0000
   1052 P         -6.2904    -8.3265  2460.4621 P.3      752 DT      0.0000
   1053 OP1       -6.8456    -9.6305  2460.9738 O.co2    752 DT      0.0000
   1054 OP2       -6.9026    -7.2534  2461.3808 O.co2    752 DT      0.0000
   1055 O5'       -4.7458    -8.1991  2460.4907 O.3      752 DT      0.0000
   1056 C5'       -3.8520    -9.3370  2460.3467 C.3      752 DT      0.0000
   1057 C4'       -2.4615    -8.7399  2460.4042 C.3      752 DT      0.0000
   1058 O4'       -2.4638    -7.3563  2460.1291 O.3      752 DT      0.0000
   1059 C3'       -1.7308    -8.8672  2461.7170 C.3      752 DT      0.0000
   1060 O3'       -0.5846    -9.7101  2461.5288 O.3      752 DT      0.0000
   1061 C2'       -1.3253    -7.4467  2462.1092 C.3      752 DT      0.0000
   1062 C1'       -1.2789    -6.7850  2460.7564 C.3      752 DT      0.0000
   1063 N1        -1.4893    -5.3404  2460.8531 N.am     752 DT      0.0000
   1064 C2        -0.4038    -4.5307  2460.6552 C.2      752 DT      0.0000
   1065 O2         0.7166    -4.9757  2460.4170 O.2      752 DT      0.0000
   1066 N3        -0.6106    -3.1800  2460.7362 N.am     752 DT      0.0000
   1067 C4        -1.8219    -2.6359  2460.9921 C.2      752 DT      0.0000
   1068 O4        -1.8566    -1.3783  2461.0374 O.2      752 DT      0.0000
   1069 C5        -2.9468    -3.4990  2461.1918 C.2      752 DT      0.0000
   1070 C7        -4.3031    -2.9379  2461.4717 C.3      752 DT      0.0000
   1071 C6        -2.7353    -4.8188  2461.1103 C.2      752 DT      0.0000
   1072 H5'       -3.9996   -10.0474  2461.1602 H        752 DT      0.0000
   1073 H5''      -4.0139    -9.8249  2459.3855 H        752 DT      0.0000
   1074 H4'       -1.8582    -9.2293  2459.6397 H        752 DT      0.0000
   1075 H3'       -2.3896    -9.2925  2462.4741 H        752 DT      0.0000
   1076 H2'       -2.0678    -6.9820  2462.7580 H        752 DT      0.0000
   1077 H2''      -0.3415    -7.4397  2462.5784 H        752 DT      0.0000
   1078 H1'       -0.3677    -7.0309  2460.2111 H        752 DT      0.0000
   1079 H3         0.1765    -2.5622  2460.5987 H        752 DT      0.0000
   1080 H6        -3.5673    -5.4930  2461.2507 H        752 DT      0.0000
   1081 H71       -4.9083    -2.9801  2460.5662 H        752 DT      0.0000
   1082 H72       -4.2073    -1.9018  2461.7965 H        752 DT      0.0000
   1083 H73       -4.7829    -3.5220  2462.2570 H        752 DT      0.0000
   1084 P         -0.2811   -10.6670  2462.8087 P.3      753 DG      0.0000
   1085 OP1        0.1993   -11.9235  2462.0936 O.co2    753 DG      0.0000
   1086 OP2       -1.5089   -10.8485  2463.5622 O.co2    753 DG      0.0000
   1087 O5'        0.9219    -9.7475  2463.4182 O.3      753 DG      0.0000
   1088 C5'        1.8387    -9.3557  2462.3276 C.3      753 DG      0.0000
   1089 C4'        2.7218    -8.2600  2462.8477 C.3      753 DG      0.0000
   1090 O4'        2.2633    -6.9468  2462.6671 O.3      753 DG      0.0000
   1091 C3'        3.0354    -8.4179  2464.3557 C.3      753 DG      0.0000
   1092 O3'        4.4748    -8.4044  2464.5146 O.3      753 DG      0.0000
   1093 C2'        2.2755    -7.2829  2465.0083 C.3      753 DG      0.0000
   1094 C1'        2.3302    -6.2103  2463.9267 C.3      753 DG      0.0000
   1095 N9         1.2559    -5.2255  2464.0963 N.ar     753 DG      0.0000
   1096 C8        -0.0529    -5.4365  2464.4325 C.ar     753 DG      0.0000
   1097 N7        -0.7797    -4.3441  2464.5182 N.ar     753 DG      0.0000
   1098 C5         0.1271    -3.3395  2464.1882 C.ar     753 DG      0.0000
   1099 C6        -0.0399    -1.9282  2464.0939 C.2      753 DG      0.0000
   1100 O6        -1.0692    -1.2641  2464.2862 O.2      753 DG      0.0000
   1101 N1         1.1045    -1.2413  2463.7588 N.am     753 DG      0.0000
   1102 C2         2.2873    -1.8775  2463.5350 C.2      753 DG      0.0000
   1103 N2         3.2945    -1.0502  2463.2262 N.pl3    753 DG      0.0000
   1104 N3         2.4928    -3.1907  2463.6061 N.2      753 DG      0.0000
   1105 C4         1.3761    -3.8637  2463.9327 C.ar     753 DG      0.0000
   1106 H5'        2.4449   -10.2102  2462.0271 H        753 DG      0.0000
   1107 H5''       1.2642    -8.9931  2461.4752 H        753 DG      0.0000
   1108 H4'        3.6707    -8.3396  2462.3171 H        753 DG      0.0000
   1109 H3'        2.6405    -9.3699  2464.7105 H        753 DG      0.0000
   1110 H2'        1.2479    -7.5697  2465.2312 H        753 DG      0.0000
   1111 H2''       2.7859    -6.9462  2465.9107 H        753 DG      0.0000
   1112 H1'        3.2907    -5.6984  2463.9857 H        753 DG      0.0000
   1113 H8        -0.4572    -6.4216  2464.6131 H        753 DG      0.0000
   1114 H1         1.0659    -0.2354  2463.6765 H        753 DG      0.0000
   1115 H21        3.1328    -0.0545  2463.1760 H        753 DG      0.0000
   1116 H22        4.2156    -1.4221  2463.0436 H        753 DG      0.0000
   1117 P          5.1472    -8.6572  2465.9030 P.3      754 DA      0.0000
   1118 OP1        5.4479   -10.0773  2466.2583 O.co2    754 DA      0.0000
   1119 OP2        3.9419    -8.1895  2466.7987 O.co2    754 DA      0.0000
   1120 O5'        6.2586    -7.5538  2466.1521 O.3      754 DA      0.0000
   1121 C5'        6.9226    -6.8056  2465.1231 C.3      754 DA      0.0000
   1122 C4'        6.8969    -5.3616  2465.5974 C.3      754 DA      0.0000
   1123 O4'        5.5893    -4.8377  2465.5070 O.3      754 DA      0.0000
   1124 C3'        7.3783    -5.1102  2467.0264 C.3      754 DA      0.0000
   1125 O3'        8.3022    -4.0036  2467.0787 O.3      754 DA      0.0000
   1126 C2'        6.0626    -4.8275  2467.7619 C.3      754 DA      0.0000
   1127 C1'        5.3507    -4.0238  2466.6843 C.3      754 DA      0.0000
   1128 N9         3.9099    -3.8749  2466.9127 N.ar     754 DA      0.0000
   1129 C8         2.9522    -4.8248  2467.1284 C.ar     754 DA      0.0000
   1130 N7         1.7436    -4.3351  2467.2934 N.ar     754 DA      0.0000
   1131 C5         1.9174    -2.9664  2467.1532 C.ar     754 DA      0.0000
   1132 C6         0.9971    -1.8965  2467.2012 C.ar     754 DA      0.0000
   1133 N6        -0.3124    -2.0364  2467.4209 N.pl3    754 DA      0.0000
   1134 N1         1.5361    -0.6556  2467.0114 N.ar     754 DA      0.0000
   1135 C2         2.8614    -0.4911  2466.7936 C.ar     754 DA      0.0000
   1136 N3         3.7854    -1.4495  2466.7354 N.ar     754 DA      0.0000
   1137 C4         3.2371    -2.6639  2466.9222 C.ar     754 DA      0.0000
   1138 H5'        6.3926    -6.9057  2464.1759 H        754 DA      0.0000
   1139 H5''       7.9521    -7.1472  2465.0153 H        754 DA      0.0000
   1140 H4'        7.5323    -4.7821  2464.9276 H        754 DA      0.0000
   1141 H3'        7.8465    -6.0090  2467.4279 H        754 DA      0.0000
   1142 H2'        5.5272    -5.7446  2468.0074 H        754 DA      0.0000
   1143 H2''       6.2337    -4.2232  2468.6528 H        754 DA      0.0000
   1144 H1'        5.8188    -3.0461  2466.5698 H        754 DA      0.0000
   1145 H8         3.1686    -5.8825  2467.1605 H        754 DA      0.0000
   1146 H2         3.2063     0.5226  2466.6523 H        754 DA      0.0000
   1147 H61       -0.8266    -2.9003  2467.3235 H        754 DA      0.0000
   1148 H62       -0.9144    -1.2438  2467.2494 H        754 DA      0.0000
   1149 P          9.4783    -3.8937  2468.2201 P.3      755 DA      0.0000
   1150 OP1       10.8313    -3.8955  2467.5531 O.co2    755 DA      0.0000
   1151 OP2        9.1803    -5.0780  2469.0511 O.co2    755 DA      0.0000
   1152 O5'        9.3041    -2.3994  2468.7510 O.3      755 DA      0.0000
   1153 C5'        9.4617    -1.2458  2467.9267 C.3      755 DA      0.0000
   1154 C4'        8.5347    -0.1623  2468.4490 C.3      755 DA      0.0000
   1155 O4'        7.2059    -0.6012  2468.4771 O.3      755 DA      0.0000
   1156 C3'        8.8425     0.4231  2469.8163 C.3      755 DA      0.0000
   1157 O3'        9.1678     1.8108  2469.7385 O.3      755 DA      0.0000
   1158 C2'        7.5954     0.0913  2470.6450 C.3      755 DA      0.0000
   1159 C1'        6.5114    -0.0687  2469.6512 C.3      755 DA      0.0000
   1160 N9         5.3816    -0.9771  2469.9193 N.ar     755 DA      0.0000
   1161 C8         5.3567    -2.3458  2470.0345 C.ar     755 DA      0.0000
   1162 N7         4.1567    -2.8485  2470.2037 N.ar     755 DA      0.0000
   1163 C5         3.3228    -1.7355  2470.1667 C.ar     755 DA      0.0000
   1164 C6         1.9098    -1.6056  2470.2872 C.ar     755 DA      0.0000
   1165 N6         1.0579    -2.6050  2470.4788 N.pl3    755 DA      0.0000
   1166 N1         1.4216    -0.3266  2470.1890 N.ar     755 DA      0.0000
   1167 C2         2.2675     0.7275  2469.9999 C.ar     755 DA      0.0000
   1168 N3         3.5903     0.6767  2469.8921 N.ar     755 DA      0.0000
   1169 C4         4.0551    -0.5854  2469.9840 C.ar     755 DA      0.0000
   1170 H5'        9.2014    -1.4895  2466.8966 H        755 DA      0.0000
   1171 H5''      10.4942    -0.8995  2467.9726 H        755 DA      0.0000
   1172 H4'        8.5794     0.6612  2467.7363 H        755 DA      0.0000
   1173 H3'        9.6935    -0.1105  2470.2395 H        755 DA      0.0000
   1174 H2'        7.7417    -0.8322  2471.2053 H        755 DA      0.0000
   1175 H2''       7.3654     0.9119  2471.3246 H        755 DA      0.0000
   1176 H1'        6.1156     0.9166  2469.4052 H        755 DA      0.0000
   1177 H8         6.2473    -2.9550  2469.9896 H        755 DA      0.0000
   1178 H2         1.8138     1.7051  2469.9308 H        755 DA      0.0000
   1179 H61        1.3570    -3.5130  2470.8050 H        755 DA      0.0000
   1180 H62        0.0771    -2.4525  2470.2920 H        755 DA      0.0000
   1181 P         10.2289     2.5880  2470.6947 P.3      756 DT      0.0000
   1182 OP1       11.0952     3.5565  2469.8974 O.co2    756 DT      0.0000
   1183 OP2       10.9624     1.6472  2471.5153 O.co2    756 DT      0.0000
   1184 O5'        9.2426     3.6224  2471.5084 O.3      756 DT      0.0000
   1185 C5'        8.2272     4.1706  2470.5633 C.3      756 DT      0.0000
   1186 C4'        6.9418     4.1627  2471.3510 C.3      756 DT      0.0000
   1187 O4'        6.4032     2.8739  2471.5430 O.3      756 DT      0.0000
   1188 C3'        7.1237     4.7384  2472.7676 C.3      756 DT      0.0000
   1189 O3'        6.7148     6.0937  2472.7693 O.3      756 DT      0.0000
   1190 C2'        6.2997     3.8183  2473.6648 C.3      756 DT      0.0000
   1191 C1'        5.4771     3.0613  2472.7002 C.3      756 DT      0.0000
   1192 N1         4.9629     1.7441  2473.0400 N.am     756 DT      0.0000
   1193 C2         3.5836     1.6243  2473.1779 C.2      756 DT      0.0000
   1194 O2         2.8744     2.6183  2473.0899 O.2      756 DT      0.0000
   1195 N3         3.0666     0.3898  2473.4319 N.am     756 DT      0.0000
   1196 C4         3.8452    -0.7256  2473.5521 C.2      756 DT      0.0000
   1197 O4         3.2880    -1.8406  2473.8072 O.2      756 DT      0.0000
   1198 C5         5.2614    -0.5816  2473.3805 C.2      756 DT      0.0000
   1199 C7         6.1621    -1.7824  2473.4680 C.3      756 DT      0.0000
   1200 C6         5.7659     0.6378  2473.1247 C.2      756 DT      0.0000
   1201 H5'        8.4887     5.1849  2470.2616 H        756 DT      0.0000
   1202 H5''       8.1386     3.5268  2469.6883 H        756 DT      0.0000
   1203 H4'        6.2073     4.7699  2470.8219 H        756 DT      0.0000
   1204 H3'        8.1741     4.6763  2473.0519 H        756 DT      0.0000
   1205 H2'        6.9435     3.1514  2474.2383 H        756 DT      0.0000
   1206 H2''       5.6654     4.4028  2474.3313 H        756 DT      0.0000
   1207 H1'        4.6448     3.6895  2472.3829 H        756 DT      0.0000
   1208 H3         2.0664     0.2956  2473.5356 H        756 DT      0.0000
   1209 H6         6.8309     0.7479  2472.9826 H        756 DT      0.0000
   1210 H71        5.5659    -2.6697  2473.6810 H        756 DT      0.0000
   1211 H72        6.6840    -1.9146  2472.5202 H        756 DT      0.0000
   1212 H73        6.8897    -1.6335  2474.2658 H        756 DT      0.0000
   1213 P          6.8937     7.1675  2473.8759 P.3      757 DT      0.0000
   1214 OP1        6.8250     8.5905  2473.2638 O.co2    757 DT      0.0000
   1215 OP2        8.2126     6.9011  2474.5058 O.co2    757 DT      0.0000
   1216 O5'        5.5588     7.0610  2474.7582 O.3      757 DT      0.0000
   1217 C5'        4.3853     7.5374  2474.0464 C.3      757 DT      0.0000
   1218 C4'        3.1688     7.0072  2474.7226 C.3      757 DT      0.0000
   1219 O4'        3.0708     5.5886  2474.6993 O.3      757 DT      0.0000
   1220 C3'        3.0203     7.4369  2476.1892 C.3      757 DT      0.0000
   1221 O3'        1.6841     7.8203  2476.4533 O.3      757 DT      0.0000
   1222 C2'        3.3408     6.1144  2476.9256 C.3      757 DT      0.0000
   1223 C1'        2.5527     5.1880  2476.0220 C.3      757 DT      0.0000
   1224 N1         2.8415     3.7973  2476.3197 N.am     757 DT      0.0000
   1225 C2         1.7870     2.9004  2476.3745 C.2      757 DT      0.0000
   1226 O2         0.6421     3.3141  2476.1861 O.2      757 DT      0.0000
   1227 N3         2.0667     1.5896  2476.6404 N.am     757 DT      0.0000
   1228 C4         3.3368     1.1462  2476.8475 C.2      757 DT      0.0000
   1229 O4         3.5206    -0.0846  2477.0708 O.2      757 DT      0.0000
   1230 C5         4.4143     2.0770  2476.7824 C.2      757 DT      0.0000
   1231 C7         5.8421     1.6647  2476.9923 C.3      757 DT      0.0000
   1232 C6         4.1216     3.3606  2476.5212 C.2      757 DT      0.0000
   1233 H5'        4.3661     8.6271  2474.0589 H        757 DT      0.0000
   1234 H5''       4.4141     7.1839  2473.0157 H        757 DT      0.0000
   1235 H4'        2.3054     7.3981  2474.1841 H        757 DT      0.0000
   1236 H3'        3.7254     8.2256  2476.4517 H        757 DT      0.0000
   1237 H2'        4.4067     5.8868  2476.9243 H        757 DT      0.0000
   1238 H2''       2.9377     6.1172  2477.9383 H        757 DT      0.0000
   1239 H1'        1.4838     5.3878  2476.0976 H        757 DT      0.0000
   1240 H3         1.3053     0.9274  2476.6848 H        757 DT      0.0000
   1241 H6         4.9286     4.0764  2476.4682 H        757 DT      0.0000
   1242 H71        5.8861     0.5939  2477.1912 H        757 DT      0.0000
   1243 H72        6.4209     1.8917  2476.0970 H        757 DT      0.0000
   1244 H73        6.2566     2.2091  2477.8407 H        757 DT      0.0000
   1245 P          0.9625     9.0743  2477.0612 P.3      758 DC      0.0000
   1246 OP1        0.2286     9.8624  2475.9933 O.co2    758 DC      0.0000
   1247 OP2        2.0089     9.8081  2477.7962 O.co2    758 DC      0.0000
   1248 O5'       -0.1746     8.2467  2477.8872 O.3      758 DC      0.0000
   1249 C5'       -0.7713     7.3668  2476.8650 C.3      758 DC      0.0000
   1250 C4'       -1.7896     6.5097  2477.5615 C.3      758 DC      0.0000
   1251 O4'       -1.3258     5.2185  2477.8084 O.3      758 DC      0.0000
   1252 C3'       -2.3519     7.0929  2478.8529 C.3      758 DC      0.0000
   1253 O3'       -3.7677     7.1928  2478.7733 O.3      758 DC      0.0000
   1254 C2'       -1.7498     6.1552  2479.9017 C.3      758 DC      0.0000
   1255 C1'       -1.5952     4.8615  2479.2053 C.3      758 DC      0.0000
   1256 N1        -0.4120     4.0616  2479.5374 N.am     758 DC      0.0000
   1257 C2        -0.6424     2.7116  2479.7932 C.2      758 DC      0.0000
   1258 O2        -1.7854     2.2443  2479.7977 O.2      758 DC      0.0000
   1259 N3         0.4487     1.9245  2480.0670 N.2      758 DC      0.0000
   1260 C4         1.7143     2.4330  2480.0571 C.2      758 DC      0.0000
   1261 N4         2.7042     1.5915  2480.3340 N.pl3    758 DC      0.0000
   1262 C5         1.9340     3.8001  2479.7791 C.2      758 DC      0.0000
   1263 C6         0.8518     4.5606  2479.5143 C.2      758 DC      0.0000
   1264 H5'       -1.2526     7.9652  2476.0913 H        758 DC      0.0000
   1265 H5''       0.0005     6.7384  2476.4208 H        758 DC      0.0000
   1266 H4'       -2.6308     6.4100  2476.8755 H        758 DC      0.0000
   1267 H3'       -1.9378     8.0909  2478.9962 H        758 DC      0.0000
   1268 H2'       -0.7827     6.5275  2480.2396 H        758 DC      0.0000
   1269 H2''      -2.4294     6.0493  2480.7473 H        758 DC      0.0000
   1270 H1'       -2.5037     4.2647  2479.2863 H        758 DC      0.0000
   1271 H5         2.9290     4.2201  2479.7785 H        758 DC      0.0000
   1272 H6         0.9949     5.6040  2479.2753 H        758 DC      0.0000
   1273 H41        2.5021     0.6222  2480.5332 H        758 DC      0.0000
   1274 H42        3.6588     1.9210  2480.3453 H        758 DC      0.0000
   1275 P         -4.7227     8.0955  2479.7253 P.3      759 DA      0.0000
   1276 OP1       -5.9784     8.4009  2478.9316 O.co2    759 DA      0.0000
   1277 OP2       -3.9824     9.3261  2480.0708 O.co2    759 DA      0.0000
   1278 O5'       -5.0192     7.1270  2481.0223 O.3      759 DA      0.0000
   1279 C5'       -5.5305     5.7911  2480.7271 C.3      759 DA      0.0000
   1280 C4'       -5.6579     4.9919  2481.9824 C.3      759 DA      0.0000
   1281 O4'       -4.5926     4.0680  2482.2245 O.3      759 DA      0.0000
   1282 C3'       -5.6852     5.8046  2483.2876 C.3      759 DA      0.0000
   1283 O3'       -6.2544     4.9932  2484.3175 O.3      759 DA      0.0000
   1284 C2'       -4.1689     5.9828  2483.5022 C.3      759 DA      0.0000
   1285 C1'       -3.7924     4.5087  2483.3189 C.3      759 DA      0.0000
   1286 N9        -2.3470     4.3922  2483.2246 N.ar     759 DA      0.0000
   1287 C8        -1.3817     5.3537  2483.1088 C.ar     759 DA      0.0000
   1288 N7        -0.1413     4.8996  2483.0902 N.ar     759 DA      0.0000
   1289 C5        -0.3059     3.5259  2483.1977 C.ar     759 DA      0.0000
   1290 C6         0.6248     2.4583  2483.2322 C.ar     759 DA      0.0000
   1291 N6         1.9349     2.6037  2483.1470 N.pl3    759 DA      0.0000
   1292 N1         0.0981     1.2055  2483.3648 N.ar     759 DA      0.0000
   1293 C2        -1.2548     1.0086  2483.4450 C.ar     759 DA      0.0000
   1294 N3        -2.1883     1.9568  2483.4151 N.ar     759 DA      0.0000
   1295 C4        -1.6476     3.1937  2483.2921 C.ar     759 DA      0.0000
   1296 H5'       -6.5096     5.8776  2480.2559 H        759 DA      0.0000
   1297 H5''      -4.8460     5.2856  2480.0458 H        759 DA      0.0000
   1298 H4'       -6.5860     4.4233  2481.9235 H        759 DA      0.0000
   1299 H3'       -6.2038     6.7566  2483.1739 H        759 DA      0.0000
   1300 H2'       -3.7127     6.6280  2482.7514 H        759 DA      0.0000
   1301 H2''      -3.9472     6.3280  2484.5121 H        759 DA      0.0000
   1302 H1'       -4.1145     3.9677  2484.2086 H        759 DA      0.0000
   1303 H8        -1.6157     6.4057  2483.0378 H        759 DA      0.0000
   1304 H2        -1.5961    -0.0115  2483.5414 H        759 DA      0.0000
   1305 H61        2.7231     1.9983  2483.3270 H        759 DA      0.0000
   1306 H62        2.2090     3.5234  2482.8322 H        759 DA      0.0000
   1307 P         -7.8381     4.8131  2484.4580 P.3      760 DC      0.0000
   1308 OP1       -8.5813     5.1575  2483.2129 O.co2    760 DC      0.0000
   1309 OP2       -8.1616     5.7314  2485.6009 O.co2    760 DC      0.0000
   1310 O5'       -8.0048     3.2618  2484.7412 O.3      760 DC      0.0000
   1311 C5'       -7.9963     2.2883  2483.6534 C.3      760 DC      0.0000
   1312 C4'       -7.4426     1.0449  2484.3584 C.3      760 DC      0.0000
   1313 O4'       -6.0936     1.3045  2484.6704 O.3      760 DC      0.0000
   1314 C3'       -8.1524     0.7125  2485.6683 C.3      760 DC      0.0000
   1315 O3'       -8.5936    -0.6624  2485.7362 O.3      760 DC      0.0000
   1316 C2'       -7.1240     1.0746  2486.7505 C.3      760 DC      0.0000
   1317 C1'       -5.8408     0.8075  2486.0743 C.3      760 DC      0.0000
   1318 N1        -4.6263     1.5383  2486.4272 N.am     760 DC      0.0000
   1319 C2        -3.4536     0.7858  2486.4003 C.2      760 DC      0.0000
   1320 O2        -3.4467    -0.4212  2486.1934 O.2      760 DC      0.0000
   1321 N3        -2.2870     1.4376  2486.6534 N.2      760 DC      0.0000
   1322 C4        -2.2344     2.7713  2486.8868 C.2      760 DC      0.0000
   1323 N4        -1.0324     3.2960  2487.1177 N.pl3    760 DC      0.0000
   1324 C5        -3.4366     3.5308  2486.8933 C.2      760 DC      0.0000
   1325 C6        -4.5839     2.8808  2486.6439 C.2      760 DC      0.0000
   1326 H5'       -9.0010     2.1131  2483.2686 H        760 DC      0.0000
   1327 H5''      -7.3276     2.6086  2482.8544 H        760 DC      0.0000
   1328 H4'       -7.5019     0.1892  2483.6857 H        760 DC      0.0000
   1329 H3'       -9.0188     1.3654  2485.7742 H        760 DC      0.0000
   1330 H2'       -7.2071     2.1229  2487.0375 H        760 DC      0.0000
   1331 H2''      -7.2402     0.4287  2487.6208 H        760 DC      0.0000
   1332 H1'       -5.6415    -0.2641  2486.0611 H        760 DC      0.0000
   1333 H5        -3.4267     4.5924  2487.0918 H        760 DC      0.0000
   1334 H6        -5.5056     3.4429  2486.6142 H        760 DC      0.0000
   1335 H41       -0.2131     2.7055  2487.1066 H        760 DC      0.0000
   1336 H42       -0.9402     4.2844  2487.3038 H        760 DC      0.0000
   1337 P          8.4585    -0.7072  2488.6957 P.3      760 DG      0.0000
   1338 OP1        9.9423    -0.7642  2488.8745 O.co2    760 DG      0.0000
   1339 OP2        8.0255     0.2701  2487.6109 O.co2    760 DG      0.0000
   1340 O5'        7.8749    -2.2323  2488.4885 O.3      760 DG      0.0000
   1341 C5'        7.1386    -2.8702  2489.5843 C.3      760 DG      0.0000
   1342 C4'        6.0028    -3.6698  2488.9500 C.3      760 DG      0.0000
   1343 O4'        4.8225    -2.9201  2488.8542 O.3      760 DG      0.0000
   1344 C3'        6.3004    -4.1832  2487.5436 C.3      760 DG      0.0000
   1345 O3'        5.8040    -5.5152  2487.2766 O.3      760 DG      0.0000
   1346 C2'        5.6215    -3.1369  2486.6414 C.3      760 DG      0.0000
   1347 C1'        4.3873    -2.8092  2487.4652 C.3      760 DG      0.0000
   1348 N9         3.9152    -1.4411  2487.1919 N.ar     760 DG      0.0000
   1349 C8         4.6692    -0.3024  2487.0352 C.ar     760 DG      0.0000
   1350 N7         3.9639     0.7756  2486.8168 N.ar     760 DG      0.0000
   1351 C5         2.6508     0.3206  2486.8416 C.ar     760 DG      0.0000
   1352 C6         1.4174     1.0075  2486.6851 C.2      760 DG      0.0000
   1353 O6         1.2663     2.2217  2486.4883 O.2      760 DG      0.0000
   1354 N1         0.3078     0.2034  2486.7720 N.am     760 DG      0.0000
   1355 C2         0.3868    -1.1318  2486.9927 C.2      760 DG      0.0000
   1356 N2        -0.7724    -1.7812  2487.0561 N.pl3    760 DG      0.0000
   1357 N3         1.5204    -1.8261  2487.1504 N.2      760 DG      0.0000
   1358 C4         2.6087    -1.0365  2487.0671 C.ar     760 DG      0.0000
   1359 H5'        7.7985    -3.5347  2490.1420 H        760 DG      0.0000
   1360 H5''       6.7302    -2.1092  2490.2492 H        760 DG      0.0000
   1361 H4'        5.8025    -4.5315  2489.5867 H        760 DG      0.0000
   1362 H3'        7.3767    -4.1601  2487.3732 H        760 DG      0.0000
   1363 H2'        6.2530    -2.2601  2486.4987 H        760 DG      0.0000
   1364 H2''       5.3428    -3.5742  2485.6826 H        760 DG      0.0000
   1365 H1'        3.5951    -3.5292  2487.2599 H        760 DG      0.0000
   1366 H8         5.7479    -0.2990  2487.0879 H        760 DG      0.0000
   1367 H1        -0.6045     0.6238  2486.6672 H        760 DG      0.0000
   1368 H21       -1.6403    -1.2776  2486.9410 H        760 DG      0.0000
   1369 H22       -0.7847    -2.7778  2487.2192 H        760 DG      0.0000
   1370 P          5.4078    -5.8152  2485.7532 P.3      759 DT      0.0000
   1371 OP1        5.5523    -7.2614  2485.3623 O.co2    759 DT      0.0000
   1372 OP2        6.4034    -4.9672  2485.0526 O.co2    759 DT      0.0000
   1373 O5'        3.8770    -5.3606  2485.6223 O.3      759 DT      0.0000
   1374 C5'        2.8614    -6.3799  2485.8899 C.3      759 DT      0.0000
   1375 C4'        1.6038    -6.0123  2485.1328 C.3      759 DT      0.0000
   1376 O4'        1.3640    -4.6165  2485.1056 O.3      759 DT      0.0000
   1377 C3'        1.6327    -6.4550  2483.6781 C.3      759 DT      0.0000
   1378 O3'        0.3627    -6.9319  2483.1830 O.3      759 DT      0.0000
   1379 C2'        2.0863    -5.2061  2482.9553 C.3      759 DT      0.0000
   1380 C1'        1.2945    -4.1683  2483.7334 C.3      759 DT      0.0000
   1381 N1         2.0078    -2.8903  2483.5821 N.am     759 DT      0.0000
   1382 C2         1.2348    -1.7386  2483.6889 C.2      759 DT      0.0000
   1383 O2         0.0257    -1.8169  2483.8786 O.2      759 DT      0.0000
   1384 N3         1.8808    -0.5400  2483.5687 N.am     759 DT      0.0000
   1385 C4         3.2238    -0.4635  2483.3511 C.2      759 DT      0.0000
   1386 O4         3.7374     0.6999  2483.2536 O.2      759 DT      0.0000
   1387 C5         3.9888    -1.6600  2483.2447 C.2      759 DT      0.0000
   1388 C7         5.4713    -1.5875  2483.0158 C.3      759 DT      0.0000
   1389 C6         3.3526    -2.8279  2483.3665 C.2      759 DT      0.0000
   1390 H5'        3.2204    -7.3534  2485.5562 H        759 DT      0.0000
   1391 H5''       2.6492    -6.4141  2486.9585 H        759 DT      0.0000
   1392 H4'        0.7573    -6.4954  2485.6208 H        759 DT      0.0000
   1393 H3'        2.3835    -7.2355  2483.5541 H        759 DT      0.0000
   1394 H2'        3.1612    -5.0506  2483.0468 H        759 DT      0.0000
   1395 H2''       1.7816    -5.2271  2481.9089 H        759 DT      0.0000
   1396 H1'        0.2647    -4.0998  2483.3827 H        759 DT      0.0000
   1397 H3         1.3470     0.3141  2483.6434 H        759 DT      0.0000
   1398 H6         3.9173    -3.7455  2483.2924 H        759 DT      0.0000
   1399 H71        5.7782    -0.5439  2482.9471 H        759 DT      0.0000
   1400 H72        5.9908    -2.0648  2483.8467 H        759 DT      0.0000
   1401 H73        5.7212    -2.1016  2482.0876 H        759 DT      0.0000
   1402 P          0.6505    -8.3692  2482.4046 P.3      758 DG      0.0000
   1403 OP1        0.4516    -9.5666  2483.2759 O.co2    758 DG      0.0000
   1404 OP2        2.0565    -8.1209  2481.9991 O.co2    758 DG      0.0000
   1405 O5'       -0.5270    -8.3554  2481.3238 O.3      758 DG      0.0000
   1406 C5'       -1.8691    -8.7052  2481.7473 C.3      758 DG      0.0000
   1407 C4'       -2.7360    -7.5351  2481.2996 C.3      758 DG      0.0000
   1408 O4'       -2.0687    -6.3187  2481.5703 O.3      758 DG      0.0000
   1409 C3'       -3.0875    -7.5439  2479.8118 C.3      758 DG      0.0000
   1410 O3'       -4.4879    -7.5080  2479.6033 O.3      758 DG      0.0000
   1411 C2'       -2.3102    -6.3740  2479.2351 C.3      758 DG      0.0000
   1412 C1'       -2.1702    -5.4494  2480.4213 C.3      758 DG      0.0000
   1413 N9        -0.9704    -4.6172  2480.2977 N.ar     758 DG      0.0000
   1414 C8         0.3263    -5.0169  2480.1388 C.ar     758 DG      0.0000
   1415 N7         1.1787    -4.0242  2480.0608 N.ar     758 DG      0.0000
   1416 C5         0.3873    -2.8875  2480.1983 C.ar     758 DG      0.0000
   1417 C6         0.7095    -1.5047  2480.2078 C.2      758 DG      0.0000
   1418 O6         1.8248    -1.0033  2480.1087 O.2      758 DG      0.0000
   1419 N1        -0.3632    -0.6723  2480.3567 N.am     758 DG      0.0000
   1420 C2        -1.6448    -1.1494  2480.4896 C.2      758 DG      0.0000
   1421 N2        -2.5983    -0.2273  2480.6253 N.pl3    758 DG      0.0000
   1422 N3        -2.0154    -2.4338  2480.4939 N.2      758 DG      0.0000
   1423 C4        -0.9420    -3.2467  2480.3432 C.ar     758 DG      0.0000
   1424 H5'       -2.1941    -9.6289  2481.2686 H        758 DG      0.0000
   1425 H5''      -1.9071    -8.8092  2482.8316 H        758 DG      0.0000
   1426 H4'       -3.6630    -7.5543  2481.8726 H        758 DG      0.0000
   1427 H3'       -2.6991    -8.4631  2479.3733 H        758 DG      0.0000
   1428 H2'       -1.3346    -6.6932  2478.8688 H        758 DG      0.0000
   1429 H2''      -2.8787    -5.8921  2478.4396 H        758 DG      0.0000
   1430 H1'       -3.0545    -4.8180  2480.5083 H        758 DG      0.0000
   1431 H8         0.6216    -6.0543  2480.0827 H        758 DG      0.0000
   1432 H1        -0.2094     0.3258  2480.3696 H        758 DG      0.0000
   1433 H21       -2.3562     0.7532  2480.6262 H        758 DG      0.0000
   1434 H22       -3.5627    -0.5094  2480.7271 H        758 DG      0.0000
   1435 P         -5.4677    -6.6210  2478.7370 P.3      757 DA      0.0000
   1436 OP1       -6.7580    -6.3424  2479.5184 O.co2    757 DA      0.0000
   1437 OP2       -5.7546    -7.4213  2477.5443 O.co2    757 DA      0.0000
   1438 O5'       -4.7378    -5.1751  2478.5622 O.3      757 DA      0.0000
   1439 C5'       -4.9947    -4.2931  2479.7187 C.3      757 DA      0.0000
   1440 C4'       -5.7550    -3.1016  2479.1909 C.3      757 DA      0.0000
   1441 O4'       -4.9251    -1.9898  2478.9686 O.3      757 DA      0.0000
   1442 C3'       -6.4357    -3.3755  2477.8504 C.3      757 DA      0.0000
   1443 O3'       -7.7257    -2.8174  2477.7752 O.3      757 DA      0.0000
   1444 C2'       -5.3979    -2.8912  2476.8538 C.3      757 DA      0.0000
   1445 C1'       -4.5506    -1.8823  2477.5777 C.3      757 DA      0.0000
   1446 N9        -3.1141    -2.1167  2477.3521 N.ar     757 DA      0.0000
   1447 C8        -2.4499    -3.3098  2477.1658 C.ar     757 DA      0.0000
   1448 N7        -1.1574    -3.1852  2476.9699 N.ar     757 DA      0.0000
   1449 C5        -0.9535    -1.8137  2477.0568 C.ar     757 DA      0.0000
   1450 C6         0.2220    -1.0340  2476.9511 C.ar     757 DA      0.0000
   1451 N6         1.4238    -1.5404  2476.7386 N.pl3    757 DA      0.0000
   1452 N1         0.0603     0.3124  2477.0748 N.ar     757 DA      0.0000
   1453 C2        -1.1692     0.8632  2477.2993 C.ar     757 DA      0.0000
   1454 N3        -2.3105     0.1875  2477.4152 N.ar     757 DA      0.0000
   1455 C4        -2.1372    -1.1494  2477.2791 C.ar     757 DA      0.0000
   1456 H5'       -5.5893    -4.8173  2480.4667 H        757 DA      0.0000
   1457 H5''      -4.0504    -3.9678  2480.1554 H        757 DA      0.0000
   1458 H4'       -6.5183    -2.8260  2479.9186 H        757 DA      0.0000
   1459 H3'       -6.5306    -4.4555  2477.7373 H        757 DA      0.0000
   1460 H2'       -5.8863    -2.4273  2475.9969 H        757 DA      0.0000
   1461 H2''      -4.7809    -3.7268  2476.5233 H        757 DA      0.0000
   1462 H1'       -4.8060    -0.8851  2477.2195 H        757 DA      0.0000
   1463 H8        -2.9503    -4.2668  2477.1797 H        757 DA      0.0000
   1464 H2        -1.2198     1.9381  2477.3906 H        757 DA      0.0000
   1465 H61        2.2556    -1.0620  2477.0541 H        757 DA      0.0000
   1466 H62        1.5123    -2.4212  2476.2524 H        757 DA      0.0000
   1467 P         -8.4884    -2.1020  2476.5906 P.3      756 DA      0.0000
   1468 OP1       -9.7912    -1.4271  2477.1105 O.co2    756 DA      0.0000
   1469 OP2       -8.8553    -3.2121  2475.6569 O.co2    756 DA      0.0000
   1470 O5'       -7.5750    -0.9209  2476.0879 O.3      756 DA      0.0000
   1471 C5'       -7.8220     0.4253  2476.5437 C.3      756 DA      0.0000
   1472 C4'       -6.8233     1.3195  2475.8418 C.3      756 DA      0.0000
   1473 O4'       -5.5429     0.7686  2475.7211 O.3      756 DA      0.0000
   1474 C3'       -7.2555     1.7282  2474.4343 C.3      756 DA      0.0000
   1475 O3'       -7.5064     3.1460  2474.4028 O.3      756 DA      0.0000
   1476 C2'       -6.1540     1.1645  2473.5347 C.3      756 DA      0.0000
   1477 C1'       -4.9542     1.1456  2474.4325 C.3      756 DA      0.0000
   1478 N9        -3.9327     0.1476  2474.1329 N.ar     756 DA      0.0000
   1479 C8        -4.0700    -1.2113  2473.9382 C.ar     756 DA      0.0000
   1480 N7        -2.9316    -1.8353  2473.7327 N.ar     756 DA      0.0000
   1481 C5        -1.9805    -0.8364  2473.8073 C.ar     756 DA      0.0000
   1482 C6        -0.5742    -0.8609  2473.6738 C.ar     756 DA      0.0000
   1483 N6         0.1274    -1.9638  2473.4306 N.pl3    756 DA      0.0000
   1484 N1         0.0480     0.3526  2473.8226 N.ar     756 DA      0.0000
   1485 C2        -0.6357     1.4853  2474.0751 C.ar     756 DA      0.0000
   1486 N3        -1.9612     1.5845  2474.2140 N.ar     756 DA      0.0000
   1487 C4        -2.5713     0.3874  2474.0668 C.ar     756 DA      0.0000
   1488 H5'       -8.8380     0.7264  2476.2886 H        756 DA      0.0000
   1489 H5''      -7.6778     0.4838  2477.6226 H        756 DA      0.0000
   1490 H4'       -6.7314     2.2313  2476.4319 H        756 DA      0.0000
   1491 H3'       -8.1860     1.2115  2474.1993 H        756 DA      0.0000
   1492 H2'       -6.4035     0.1593  2473.1948 H        756 DA      0.0000
   1493 H2''      -5.9828     1.8233  2472.6834 H        756 DA      0.0000
   1494 H1'       -4.5091     2.1388  2474.4936 H        756 DA      0.0000
   1495 H8        -5.0249    -1.7157  2473.9531 H        756 DA      0.0000
   1496 H2        -0.0614     2.3946  2474.1742 H        756 DA      0.0000
   1497 H61        1.0933    -1.9345  2473.7246 H        756 DA      0.0000
   1498 H62       -0.2770    -2.7741  2472.9833 H        756 DA      0.0000
   1499 P         -7.9659     3.8262  2473.0179 P.3      755 DT      0.0000
   1500 OP1       -8.5220     5.2156  2473.0760 O.co2    755 DT      0.0000
   1501 OP2       -8.9043     2.7813  2472.5052 O.co2    755 DT      0.0000
   1502 O5'       -6.4604     3.9547  2472.3147 O.3      755 DT      0.0000
   1503 C5'       -5.5023     4.3884  2473.3270 C.3      755 DT      0.0000
   1504 C4'       -4.3299     5.0169  2472.6441 C.3      755 DT      0.0000
   1505 O4'       -3.2551     4.1440  2472.4637 O.3      755 DT      0.0000
   1506 C3'       -4.6498     5.6150  2471.2828 C.3      755 DT      0.0000
   1507 O3'       -3.9295     6.8245  2471.0156 O.3      755 DT      0.0000
   1508 C2'       -4.2791     4.4240  2470.3895 C.3      755 DT      0.0000
   1509 C1'       -2.9919     3.9498  2471.0295 C.3      755 DT      0.0000
   1510 N1        -2.7794     2.5084  2470.7996 N.am     755 DT      0.0000
   1511 C2        -1.4738     2.0662  2470.6779 C.2      755 DT      0.0000
   1512 O2        -0.5282     2.8550  2470.7147 O.2      755 DT      0.0000
   1513 N3        -1.2633     0.7244  2470.5105 N.am     755 DT      0.0000
   1514 C4        -2.2916    -0.1644  2470.4620 C.2      755 DT      0.0000
   1515 O4        -2.0055    -1.3849  2470.2765 O.2      755 DT      0.0000
   1516 C5        -3.6255     0.3085  2470.6104 C.2      755 DT      0.0000
   1517 C7        -4.7921    -0.6491  2470.5583 C.3      755 DT      0.0000
   1518 C6        -3.8140     1.6210  2470.7834 C.2      755 DT      0.0000
   1519 H5'       -5.9732     5.1151  2473.9891 H        755 DT      0.0000
   1520 H5''      -5.1691     3.5278  2473.9071 H        755 DT      0.0000
   1521 H4'       -3.9825     5.8303  2473.2811 H        755 DT      0.0000
   1522 H3'       -5.7206     5.8051  2471.2108 H        755 DT      0.0000
   1523 H2'       -5.0465     3.6505  2470.4201 H        755 DT      0.0000
   1524 H2''      -4.1024     4.7511  2469.3649 H        755 DT      0.0000
   1525 H1'       -2.1377     4.5389  2470.6956 H        755 DT      0.0000
   1526 H3        -0.3166     0.3842  2470.4204 H        755 DT      0.0000
   1527 H6        -4.8203     1.9905  2470.9148 H        755 DT      0.0000
   1528 H71       -5.2136    -0.6547  2469.5531 H        755 DT      0.0000
   1529 H72       -5.5544    -0.3317  2471.2699 H        755 DT      0.0000
   1530 H73       -4.4507    -1.6519  2470.8148 H        755 DT      0.0000
   1531 P         -4.1470     7.4627  2469.5256 P.3      754 DT      0.0000
   1532 OP1       -4.8705     8.8025  2469.6736 O.co2    754 DT      0.0000
   1533 OP2       -5.0535     6.4701  2468.8558 O.co2    754 DT      0.0000
   1534 O5'       -2.7496     7.6196  2468.8736 O.3      754 DT      0.0000
   1535 C5'       -1.5585     7.8537  2469.6250 C.3      754 DT      0.0000
   1536 C4'       -0.4082     7.2599  2468.8770 C.3      754 DT      0.0000
   1537 O4'       -0.2974     5.8634  2468.8200 O.3      754 DT      0.0000
   1538 C3'       -0.2078     7.7012  2467.4110 C.3      754 DT      0.0000
   1539 O3'        1.2192     7.6954  2467.3072 O.3      754 DT      0.0000
   1540 C2'       -0.8458     6.5333  2466.6472 C.3      754 DT      0.0000
   1541 C1'       -0.1779     5.4164  2467.4229 C.3      754 DT      0.0000
   1542 N1        -0.8088     4.0977  2467.3168 N.am     754 DT      0.0000
   1543 C2         0.0728     3.0084  2467.3161 C.2      754 DT      0.0000
   1544 O2         1.2931     3.1775  2467.3592 O.2      754 DT      0.0000
   1545 N3        -0.4809     1.7616  2467.2627 N.am     754 DT      0.0000
   1546 C4        -1.8269     1.5537  2467.2029 C.2      754 DT      0.0000
   1547 O4        -2.2425     0.3576  2467.1405 O.2      754 DT      0.0000
   1548 C5        -2.6985     2.6767  2467.2112 C.2      754 DT      0.0000
   1549 C7        -4.1961     2.4604  2467.1498 C.3      754 DT      0.0000
   1550 C6        -2.1525     3.8945  2467.2777 C.2      754 DT      0.0000
   1551 H5'       -1.4046     8.9259  2469.7472 H        754 DT      0.0000
   1552 H5''      -1.6431     7.3812  2470.6036 H        754 DT      0.0000
   1553 H4'        0.4838     7.5984  2469.4043 H        754 DT      0.0000
   1554 H3'       -0.6569     8.6677  2467.1822 H        754 DT      0.0000
   1555 H2'       -0.5740     6.5277  2465.5916 H        754 DT      0.0000
   1556 H2''      -1.9277     6.5164  2466.7788 H        754 DT      0.0000
   1557 H1'        0.8736     5.3482  2467.1439 H        754 DT      0.0000
   1558 H3         0.1327     0.9593  2467.2676 H        754 DT      0.0000
   1559 H6        -2.8064     4.7537  2467.3014 H        754 DT      0.0000
   1560 H71       -4.4078     1.3923  2467.1009 H        754 DT      0.0000
   1561 H72       -4.5978     2.9510  2466.2632 H        754 DT      0.0000
   1562 H73       -4.6610     2.8825  2468.0407 H        754 DT      0.0000
   1563 P          2.0718     8.3034  2466.1610 P.3      753 DC      0.0000
   1564 OP1        3.1851     9.1578  2466.7701 O.co2    753 DC      0.0000
   1565 OP2        1.1399     9.1750  2465.3791 O.co2    753 DC      0.0000
   1566 O5'        2.6108     6.9555  2465.4216 O.3      753 DC      0.0000
   1567 C5'        3.6581     6.2304  2466.1461 C.3      753 DC      0.0000
   1568 C4'        4.5586     5.6343  2465.0955 C.3      753 DC      0.0000
   1569 O4'        4.2674     4.2781  2464.8503 O.3      753 DC      0.0000
   1570 C3'        4.5150     6.3243  2463.7311 C.3      753 DC      0.0000
   1571 O3'        5.7559     6.3218  2463.0218 O.3      753 DC      0.0000
   1572 C2'        3.3965     5.5279  2463.0450 C.3      753 DC      0.0000
   1573 C1'        3.6134     4.1182  2463.5916 C.3      753 DC      0.0000
   1574 N1         2.2883     3.4655  2463.7094 N.am     753 DC      0.0000
   1575 C2         2.2680     2.0716  2463.7266 C.2      753 DC      0.0000
   1576 O2         3.3160     1.4149  2463.6580 O.2      753 DC      0.0000
   1577 N3         1.0457     1.4642  2463.8299 N.2      753 DC      0.0000
   1578 C4        -0.1103     2.1747  2463.9006 C.2      753 DC      0.0000
   1579 N4        -1.2782     1.5364  2464.0025 N.pl3    753 DC      0.0000
   1580 C5        -0.0613     3.5965  2463.8755 C.2      753 DC      0.0000
   1581 C6         1.1398     4.1923  2463.7819 C.2      753 DC      0.0000
   1582 H5'        4.2203     6.9142  2466.7820 H        753 DC      0.0000
   1583 H5''       3.2143     5.4388  2466.7500 H        753 DC      0.0000
   1584 H4'        5.5827     5.6925  2465.4643 H        753 DC      0.0000
   1585 H3'        4.1856     7.3545  2463.8653 H        753 DC      0.0000
   1586 H2'        3.5045     5.5511  2461.9606 H        753 DC      0.0000
   1587 H2''       2.4186     5.9076  2463.3410 H        753 DC      0.0000
   1588 H1'        4.2486     3.5499  2462.9122 H        753 DC      0.0000
   1589 H5        -0.9669     4.1824  2463.9303 H        753 DC      0.0000
   1590 H6         1.1948     5.2708  2463.7638 H        753 DC      0.0000
   1591 H41       -1.3018     0.5269  2464.0232 H        753 DC      0.0000
   1592 H42       -2.1382     2.0630  2464.0589 H        753 DC      0.0000
   1593 P          5.9346     6.1710  2461.3898 P.3      752 DA      0.0000
   1594 OP1        7.2672     6.7734  2461.0004 O.co2    752 DA      0.0000
   1595 OP2        4.7462     6.8619  2460.8198 O.co2    752 DA      0.0000
   1596 O5'        6.0376     4.5865  2461.2243 O.3      752 DA      0.0000
   1597 C5'        7.2757     3.9215  2461.6897 C.3      752 DA      0.0000
   1598 C4'        7.3100     2.6816  2460.8125 C.3      752 DA      0.0000
   1599 O4'        6.1611     1.8674  2461.0798 O.3      752 DA      0.0000
   1600 C3'        7.2223     2.9944  2459.3081 C.3      752 DA      0.0000
   1601 O3'        7.6288     1.8877  2458.5190 O.3      752 DA      0.0000
   1602 C2'        5.6968     3.0878  2459.1206 C.3      752 DA      0.0000
   1603 C1'        5.3898     1.7654  2459.8752 C.3      752 DA      0.0000
   1604 N9         3.9378     1.7566  2460.0207 N.ar     752 DA      0.0000
   1605 C8         3.1157     2.8589  2460.0935 C.ar     752 DA      0.0000
   1606 N7         1.8474     2.5544  2460.2082 N.ar     752 DA      0.0000
   1607 C5         1.8442     1.1481  2460.2018 C.ar     752 DA      0.0000
   1608 C6         0.7732     0.2180  2460.3017 C.ar     752 DA      0.0000
   1609 N6        -0.5094     0.5720  2460.4246 N.pl3    752 DA      0.0000
   1610 N1         1.1572    -1.0886  2460.2666 N.ar     752 DA      0.0000
   1611 C2         2.4587    -1.4483  2460.1477 C.ar     752 DA      0.0000
   1612 N3         3.5115    -0.6306  2460.0562 N.ar     752 DA      0.0000
   1613 C4         3.1204     0.6554  2460.0838 C.ar     752 DA      0.0000
   1614 H5'        8.1505     4.5499  2461.5230 H        752 DA      0.0000
   1615 H5''       7.1934     3.6470  2462.7414 H        752 DA      0.0000
   1616 H4'        8.2175     2.1133  2461.0164 H        752 DA      0.0000
   1617 H3'        7.7374     3.9164  2459.0384 H        752 DA      0.0000
   1618 H2'        5.2617     3.9635  2459.6022 H        752 DA      0.0000
   1619 H2''       5.4160     3.0257  2458.0692 H        752 DA      0.0000
   1620 H1'        5.7172     0.9083  2459.2868 H        752 DA      0.0000
   1621 H8         3.4812     3.8746  2460.0595 H        752 DA      0.0000
   1622 H2         2.6667    -2.5078  2460.1245 H        752 DA      0.0000
   1623 H61       -0.7634     1.5491  2460.4493 H        752 DA      0.0000
   1624 H62       -1.2248    -0.1377  2460.4927 H        752 DA      0.0000
   1625 P          8.7196     2.0612  2457.3781 P.3      751 DC      0.0000
   1626 OP1       10.0196     1.9578  2458.1584 O.co2    751 DC      0.0000
   1627 OP2        8.5830     3.3291  2456.6525 O.co2    751 DC      0.0000
   1628 O5'        8.3413     0.7927  2456.4022 O.3      751 DC      0.0000
   1629 C5'        8.2504    -0.5229  2457.0712 C.3      751 DC      0.0000
   1630 C4'        7.1404    -1.3108  2456.4272 C.3      751 DC      0.0000
   1631 O4'        5.8789    -1.1504  2457.0643 O.3      751 DC      0.0000
   1632 C3'        6.9243    -0.9425  2454.9494 C.3      751 DC      0.0000
   1633 O3'        6.5045    -2.0325  2454.1381 O.3      751 DC      0.0000
   1634 C2'        5.7346     0.0589  2455.1150 C.3      751 DC      0.0000
   1635 C1'        4.9153    -0.9418  2456.0106 C.3      751 DC      0.0000
   1636 N1         3.6303    -0.3381  2456.2485 N.am     751 DC      0.0000
   1637 C2         2.5622    -1.1615  2456.5657 C.2      751 DC      0.0000
   1638 O2         2.5260    -2.3892  2456.7061 O.2      751 DC      0.0000
   1639 N3         1.3407    -0.5800  2456.7639 N.2      751 DC      0.0000
   1640 C4         1.1535     0.7699  2456.6479 C.2      751 DC      0.0000
   1641 N4        -0.0619     1.2968  2456.8640 N.pl3    751 DC      0.0000
   1642 C5         2.2589     1.6019  2456.3183 C.2      751 DC      0.0000
   1643 C6         3.4434     1.0098  2456.1266 C.2      751 DC      0.0000
   1644 H5'        9.1935    -1.0579  2456.9598 H        751 DC      0.0000
   1645 H5''       8.0326    -0.3812  2458.1298 H        751 DC      0.0000
   1646 H4'        7.4077    -2.3665  2456.4739 H        751 DC      0.0000
   1647 H3'        7.8021    -0.4506  2454.5304 H        751 DC      0.0000
   1648 H2'        6.0101     0.9780  2455.6321 H        751 DC      0.0000
   1649 H2''       5.2357     0.2589  2454.1668 H        751 DC      0.0000
   1650 H1'        4.7752    -1.8754  2455.4657 H        751 DC      0.0000
   1651 H5         2.1463     2.6721  2456.2261 H        751 DC      0.0000
   1652 H6         4.2906     1.6257  2455.8633 H        751 DC      0.0000
   1653 H41       -0.8373     0.6960  2457.1045 H        751 DC      0.0000
   1654 H42       -0.2011     2.2941  2456.7860 H        751 DC      0.0000
   1655 P         -9.6323    -2.7568  2490.7373 P.3      761 DG      0.0000
   1656 OP1      -11.0814    -2.4377  2490.7357 O.co2    761 DG      0.0000
   1657 OP2       -8.9804    -1.8520  2491.7929 O.co2    761 DG      0.0000
   1658 O5'       -9.2335    -4.2868  2490.9156 O.3      761 DG      0.0000
   1659 C5'       -8.8105    -5.2378  2489.9156 C.3      761 DG      0.0000
   1660 C4'       -7.5527    -5.9182  2490.4145 C.3      761 DG      0.0000
   1661 O4'       -6.3843    -5.2470  2489.9953 O.3      761 DG      0.0000
   1662 C3'       -7.4118    -6.1412  2491.9066 C.3      761 DG      0.0000
   1663 O3'       -7.1504    -7.5362  2492.2186 O.3      761 DG      0.0000
   1664 C2'       -6.2902    -5.2113  2492.3285 C.3      761 DG      0.0000
   1665 C1'       -5.4665    -5.0575  2491.0729 C.3      761 DG      0.0000
   1666 N9        -4.8333    -3.7265  2491.0438 N.ar     761 DG      0.0000
   1667 C8        -5.3903    -2.4905  2491.2727 C.ar     761 DG      0.0000
   1668 N7        -4.5394    -1.4934  2491.1830 N.ar     761 DG      0.0000
   1669 C5        -3.3340    -2.1144  2490.8660 C.ar     761 DG      0.0000
   1670 C6        -2.0354    -1.5948  2490.6401 C.2      761 DG      0.0000
   1671 O6        -1.6705    -0.4189  2490.6613 O.2      761 DG      0.0000
   1672 N1        -1.0757    -2.5281  2490.3586 N.am     761 DG      0.0000
   1673 C2        -1.3215    -3.7977  2490.2979 C.2      761 DG      0.0000
   1674 N2        -0.2614    -4.4437  2490.0011 N.pl3    761 DG      0.0000
   1675 N3        -2.5640    -4.4049  2490.5067 N.2      761 DG      0.0000
   1676 C4        -3.4995    -3.4840  2490.7792 C.ar     761 DG      0.0000
   1677 H5'       -9.5933    -5.9795  2489.7569 H        761 DG      0.0000
   1678 H5''      -8.6011    -4.7188  2488.9803 H        761 DG      0.0000
   1679 H4'       -7.5281    -6.9039  2489.9497 H        761 DG      0.0000
   1680 H3'       -8.3334    -5.8334  2492.4006 H        761 DG      0.0000
   1681 H2'       -6.6845    -4.2492  2492.6555 H        761 DG      0.0000
   1682 H2''      -5.6954    -5.6673  2493.1200 H        761 DG      0.0000
   1683 H1'       -4.6983    -5.8301  2491.0409 H        761 DG      0.0000
   1684 H8        -6.4357    -2.3515  2491.5058 H        761 DG      0.0000
   1685 H1        -0.1313    -2.2119  2490.1902 H        761 DG      0.0000
   1686 H21        0.6074    -3.9493  2489.8568 H        761 DG      0.0000
   1687 H22       -0.2914    -5.4491  2489.9107 H        761 DG      0.0000
   1688 P         -6.6805    -8.0169  2493.6472 P.3      762 DT      0.0000
   1689 OP1       -7.2972    -9.2929  2494.1588 O.co2    762 DT      0.0000
   1690 OP2       -7.2408    -6.9158  2494.5659 O.co2    762 DT      0.0000
   1691 O5'       -5.1316    -7.9633  2493.6758 O.3      762 DT      0.0000
   1692 C5'       -4.2931    -9.1426  2493.5318 C.3      762 DT      0.0000
   1693 C4'       -2.8757    -8.6125  2493.5893 C.3      762 DT      0.0000
   1694 O4'       -2.8120    -7.2303  2493.3141 O.3      762 DT      0.0000
   1695 C3'       -2.1519    -8.7746  2494.9020 C.3      762 DT      0.0000
   1696 O3'       -1.0472    -9.6712  2494.7138 O.3      762 DT      0.0000
   1697 C2'       -1.6791    -7.3749  2495.2942 C.3      762 DT      0.0000
   1698 C1'       -1.6011    -6.7163  2493.9415 C.3      762 DT      0.0000
   1699 N1        -1.7424    -5.2633  2494.0381 N.am     762 DT      0.0000
   1700 C2        -0.6195    -4.5063  2493.8402 C.2      762 DT      0.0000
   1701 O2         0.4784    -5.0042  2493.6020 O.2      762 DT      0.0000
   1702 N3        -0.7616    -3.1472  2493.9213 N.am     762 DT      0.0000
   1703 C4        -1.9455    -2.5459  2494.1772 C.2      762 DT      0.0000
   1704 O4        -1.9202    -1.2882  2494.2224 O.2      762 DT      0.0000
   1705 C5        -3.1104    -3.3544  2494.3769 C.2      762 DT      0.0000
   1706 C7        -4.4383    -2.7292  2494.6568 C.3      762 DT      0.0000
   1707 C6        -2.9621    -4.6828  2494.2954 C.2      762 DT      0.0000
   1708 H5'       -4.4744    -9.8452  2494.3452 H        762 DT      0.0000
   1709 H5''      -4.4781    -9.6222  2492.5706 H        762 DT      0.0000
   1710 H4'       -2.2965    -9.1302  2492.8247 H        762 DT      0.0000
   1711 H3'       -2.8303    -9.1679  2495.6591 H        762 DT      0.0000
   1712 H2'       -2.3986    -6.8754  2495.9430 H        762 DT      0.0000
   1713 H2''      -0.6961    -7.4149  2495.7635 H        762 DT      0.0000
   1714 H1'       -0.7027    -7.0053  2493.3962 H        762 DT      0.0000
   1715 H3         0.0541    -2.5677  2493.7838 H        762 DT      0.0000
   1716 H6        -3.8254    -5.3165  2494.4357 H        762 DT      0.0000
   1717 H71       -5.0448    -2.7425  2493.7512 H        762 DT      0.0000
   1718 H72       -4.2933    -1.6989  2494.9815 H        762 DT      0.0000
   1719 H73       -4.9455    -3.2898  2495.4421 H        762 DT      0.0000
   1720 P         -0.7897   -10.6415  2495.9937 P.3      763 DG      0.0000
   1721 OP1       -0.3698   -11.9194  2495.2787 O.co2    763 DG      0.0000
   1722 OP2       -2.0248   -10.7641  2496.7473 O.co2    763 DG      0.0000
   1723 O5'        0.4558    -9.7804  2496.6033 O.3      763 DG      0.0000
   1724 C5'        1.3902    -9.4328  2495.5127 C.3      763 DG      0.0000
   1725 C4'        2.3246    -8.3804  2496.0327 C.3      763 DG      0.0000
   1726 O4'        1.9293    -7.0469  2495.8521 O.3      763 DG      0.0000
   1727 C3'        2.6304    -8.5531  2497.5407 C.3      763 DG      0.0000
   1728 O3'        4.0687    -8.6083  2497.6996 O.3      763 DG      0.0000
   1729 C2'        1.9254    -7.3831  2498.1933 C.3      763 DG      0.0000
   1730 C1'        2.0312    -6.3144  2497.1118 C.3      763 DG      0.0000
   1731 N9         1.0051    -5.2795  2497.2813 N.ar     763 DG      0.0000
   1732 C8        -0.3122    -5.4278  2497.6175 C.ar     763 DG      0.0000
   1733 N7        -0.9861    -4.3020  2497.7033 N.ar     763 DG      0.0000
   1734 C5        -0.0323    -3.3418  2497.3732 C.ar     763 DG      0.0000
   1735 C6        -0.1319    -1.9241  2497.2789 C.2      763 DG      0.0000
   1736 O6        -1.1283    -1.2116  2497.4712 O.2      763 DG      0.0000
   1737 N1         1.0440    -1.2926  2496.9438 N.am     763 DG      0.0000
   1738 C2         2.1951    -1.9845  2496.7201 C.2      763 DG      0.0000
   1739 N2         3.2406    -1.2062  2496.4113 N.pl3    763 DG      0.0000
   1740 N3         2.3377    -3.3060  2496.7911 N.2      763 DG      0.0000
   1741 C4         1.1902    -3.9249  2497.1177 C.ar     763 DG      0.0000
   1742 H5'        1.9550   -10.3153  2495.2122 H        763 DG      0.0000
   1743 H5''       0.8337    -9.0432  2494.6603 H        763 DG      0.0000
   1744 H4'        3.2686    -8.5052  2495.5021 H        763 DG      0.0000
   1745 H3'        2.1904    -9.4852  2497.8955 H        763 DG      0.0000
   1746 H2'        0.8853    -7.6206  2498.4163 H        763 DG      0.0000
   1747 H2''       2.4513    -7.0712  2499.0957 H        763 DG      0.0000
   1748 H1'        3.0150    -5.8489  2497.1707 H        763 DG      0.0000
   1749 H8        -0.7630    -6.3925  2497.7981 H        763 DG      0.0000
   1750 H1         1.0535    -0.2860  2496.8615 H        763 DG      0.0000
   1751 H21        3.1266    -0.2039  2496.3610 H        763 DG      0.0000
   1752 H22        4.1430    -1.6216  2496.2286 H        763 DG      0.0000
   1753 P          4.7283    -8.8930  2499.0880 P.3      764 DA      0.0000
   1754 OP1        4.9609   -10.3257  2499.4434 O.co2    764 DA      0.0000
   1755 OP2        3.5467    -8.3683  2499.9838 O.co2    764 DA      0.0000
   1756 O5'        5.8911    -7.8438  2499.3371 O.3      764 DA      0.0000
   1757 C5'        6.5900    -7.1282  2498.3081 C.3      764 DA      0.0000
   1758 C4'        6.6332    -5.6846  2498.7824 C.3      764 DA      0.0000
   1759 O4'        5.3521    -5.0988  2498.6920 O.3      764 DA      0.0000
   1760 C3'        7.1261    -5.4564  2500.2115 C.3      764 DA      0.0000
   1761 O3'        8.1017    -4.3951  2500.2637 O.3      764 DA      0.0000
   1762 C2'        5.8254    -5.1112  2500.9469 C.3      764 DA      0.0000
   1763 C1'        5.1526    -4.2745  2499.8693 C.3      764 DA      0.0000
   1764 N9         3.7206    -4.0570  2500.0977 N.ar     764 DA      0.0000
   1765 C8         2.7187    -4.9602  2500.3135 C.ar     764 DA      0.0000
   1766 N7         1.5348    -4.4134  2500.4785 N.ar     764 DA      0.0000
   1767 C5         1.7737    -3.0545  2500.3383 C.ar     764 DA      0.0000
   1768 C6         0.9055    -1.9420  2500.3862 C.ar     764 DA      0.0000
   1769 N6        -0.4092    -2.0192  2500.6060 N.pl3    764 DA      0.0000
   1770 N1         1.5031    -0.7281  2500.1964 N.ar     764 DA      0.0000
   1771 C2         2.8347    -0.6271  2499.9787 C.ar     764 DA      0.0000
   1772 N3         3.7119    -1.6284  2499.9204 N.ar     764 DA      0.0000
   1773 C4         3.1064    -2.8153  2500.1073 C.ar     764 DA      0.0000
   1774 H5'        6.0558    -7.2029  2497.3609 H        764 DA      0.0000
   1775 H5''       7.6021    -7.5184  2498.2003 H        764 DA      0.0000
   1776 H4'        7.2956    -5.1361  2498.1126 H        764 DA      0.0000
   1777 H3'        7.5509    -6.3765  2500.6129 H        764 DA      0.0000
   1778 H2'        5.2468    -6.0018  2501.1924 H        764 DA      0.0000
   1779 H2''       6.0251    -4.5158  2501.8378 H        764 DA      0.0000
   1780 H1'        5.6668    -3.3202  2499.7548 H        764 DA      0.0000
   1781 H8         2.8843    -6.0269  2500.3456 H        764 DA      0.0000
   1782 H2         3.2276     0.3690  2499.8373 H        764 DA      0.0000
   1783 H61       -0.9640    -2.8576  2500.5086 H        764 DA      0.0000
   1784 H62       -0.9727    -1.1988  2500.4345 H        764 DA      0.0000
   1785 P          9.2817    -4.3415  2501.4052 P.3      765 DA      0.0000
   1786 OP1       10.6331    -4.4078  2500.7381 O.co2    765 DA      0.0000
   1787 OP2        8.9276    -5.5103  2502.2361 O.co2    765 DA      0.0000
   1788 O5'        9.1790    -2.8406  2501.9360 O.3      765 DA      0.0000
   1789 C5'        9.3915    -1.6958  2501.1117 C.3      765 DA      0.0000
   1790 C4'        8.5172    -0.5693  2501.6340 C.3      765 DA      0.0000
   1791 O4'        7.1690    -0.9443  2501.6622 O.3      765 DA      0.0000
   1792 C3'        8.8526     0.0008  2503.0013 C.3      765 DA      0.0000
   1793 O3'        9.2437     1.3714  2502.9235 O.3      765 DA      0.0000
   1794 C2'        7.5911    -0.2712  2503.8301 C.3      765 DA      0.0000
   1795 C1'        6.5007    -0.3793  2502.8363 C.3      765 DA      0.0000
   1796 N9         5.3289    -1.2327  2503.1043 N.ar     765 DA      0.0000
   1797 C8         5.2386    -2.5987  2503.2195 C.ar     765 DA      0.0000
   1798 N7         4.0160    -3.0436  2503.3888 N.ar     765 DA      0.0000
   1799 C5         3.2362    -1.8921  2503.3518 C.ar     765 DA      0.0000
   1800 C6         1.8310    -1.6949  2503.4722 C.ar     765 DA      0.0000
   1801 N6         0.9325    -2.6525  2503.6639 N.pl3    765 DA      0.0000
   1802 N1         1.4044    -0.3941  2503.3741 N.ar     765 DA      0.0000
   1803 C2         2.2996     0.6185  2503.1850 C.ar     765 DA      0.0000
   1804 N3         3.6185     0.5047  2503.0771 N.ar     765 DA      0.0000
   1805 C4         4.0226    -0.7782  2503.1690 C.ar     765 DA      0.0000
   1806 H5'        9.1198    -1.9268  2500.0817 H        765 DA      0.0000
   1807 H5''      10.4393    -1.3992  2501.1577 H        765 DA      0.0000
   1808 H4'        8.6012     0.2512  2500.9213 H        765 DA      0.0000
   1809 H3'        9.6772    -0.5728  2503.4245 H        765 DA      0.0000
   1810 H2'        7.6931    -1.2006  2504.3903 H        765 DA      0.0000
   1811 H2''       7.4005     0.5594  2504.5096 H        765 DA      0.0000
   1812 H1'        6.1524     0.6238  2502.5902 H        765 DA      0.0000
   1813 H8         6.0992    -3.2497  2503.1746 H        765 DA      0.0000
   1814 H2         1.8931     1.6167  2503.1158 H        765 DA      0.0000
   1815 H61        1.1878    -3.5737  2503.9901 H        765 DA      0.0000
   1816 H62       -0.0400    -2.4534  2503.4771 H        765 DA      0.0000
   1817 P         10.3407     2.0970  2503.8797 P.3      766 DT      0.0000
   1818 OP1       11.2522     3.0231  2503.0824 O.co2    766 DT      0.0000
   1819 OP2       11.0285     1.1223  2504.7003 O.co2    766 DT      0.0000
   1820 O5'        9.4049     3.1774  2504.6934 O.3      766 DT      0.0000
   1821 C5'        8.4168     3.7734  2503.7483 C.3      766 DT      0.0000
   1822 C4'        7.1325     3.8267  2504.5360 C.3      766 DT      0.0000
   1823 O4'        6.5330     2.5651  2504.7280 O.3      766 DT      0.0000
   1824 C3'        7.3417     4.3931  2505.9526 C.3      766 DT      0.0000
   1825 O3'        6.9979     5.7664  2505.9543 O.3      766 DT      0.0000
   1826 C2'        6.4747     3.5134  2506.8499 C.3      766 DT      0.0000
   1827 C1'        5.6169     2.7965  2505.8853 C.3      766 DT      0.0000
   1828 N1         5.0405     1.5053  2506.2250 N.am     766 DT      0.0000
   1829 C2         3.6570     1.4514  2506.3630 C.2      766 DT      0.0000
   1830 O2         2.9960     2.4782  2506.2749 O.2      766 DT      0.0000
   1831 N3         3.0817     0.2431  2506.6170 N.am     766 DT      0.0000
   1832 C4         3.8062    -0.9082  2506.7371 C.2      766 DT      0.0000
   1833 O4         3.1964    -1.9954  2506.9923 O.2      766 DT      0.0000
   1834 C5         5.2277    -0.8320  2506.5655 C.2      766 DT      0.0000
   1835 C7         6.0700    -2.0744  2506.6530 C.3      766 DT      0.0000
   1836 C6         5.7898     0.3620  2506.3098 C.2      766 DT      0.0000
   1837 H5'        8.7265     4.7740  2503.4467 H        766 DT      0.0000
   1838 H5''       8.2976     3.1345  2502.8733 H        766 DT      0.0000
   1839 H4'        6.4279     4.4684  2504.0069 H        766 DT      0.0000
   1840 H3'        8.3879     4.2810  2506.2370 H        766 DT      0.0000
   1841 H2'        7.0860     2.8165  2507.4233 H        766 DT      0.0000
   1842 H2''       5.8690     4.1275  2507.5163 H        766 DT      0.0000
   1843 H1'        4.8155     3.4637  2505.5679 H        766 DT      0.0000
   1844 H3         2.0781     0.1967  2506.7207 H        766 DT      0.0000
   1845 H6         6.8588     0.4211  2506.1676 H        766 DT      0.0000
   1846 H71        5.4322    -2.9322  2506.8661 H        766 DT      0.0000
   1847 H72        6.5850    -2.2313  2505.7053 H        766 DT      0.0000
   1848 H73        6.8040    -1.9603  2507.4508 H        766 DT      0.0000
   1849 P          7.2279     6.8304  2507.0609 P.3      767 DT      0.0000
   1850 OP1        7.2271     8.2551  2506.4488 O.co2    767 DT      0.0000
   1851 OP2        8.5325     6.5014  2507.6909 O.co2    767 DT      0.0000
   1852 O5'        5.8894     6.7877  2507.9432 O.3      767 DT      0.0000
   1853 C5'        4.7399     7.3195  2507.2315 C.3      767 DT      0.0000
   1854 C4'        3.4995     6.8481  2507.9076 C.3      767 DT      0.0000
   1855 O4'        3.3340     5.4357  2507.8843 O.3      767 DT      0.0000
   1856 C3'        3.3717     7.2843  2509.3743 C.3      767 DT      0.0000
   1857 O3'        2.0553     7.7310  2509.6383 O.3      767 DT      0.0000
   1858 C2'        3.6287     5.9480  2510.1106 C.3      767 DT      0.0000
   1859 C1'        2.7973     5.0603  2509.2070 C.3      767 DT      0.0000
   1860 N1         3.0194     3.6575  2509.5047 N.am     767 DT      0.0000
   1861 C2         1.9234     2.8118  2509.5596 C.2      767 DT      0.0000
   1862 O2         0.7995     3.2797  2509.3711 O.2      767 DT      0.0000
   1863 N3         2.1402     1.4891  2509.8255 N.am     767 DT      0.0000
   1864 C4         3.3877     0.9857  2510.0325 C.2      767 DT      0.0000
   1865 O4         3.5126    -0.2524  2510.2558 O.2      767 DT      0.0000
   1866 C5         4.5084     1.8641  2509.9674 C.2      767 DT      0.0000
   1867 C7         5.9149     1.3840  2510.1773 C.3      767 DT      0.0000
   1868 C6         4.2773     3.1601  2509.7063 C.2      767 DT      0.0000
   1869 H5'        4.7727     8.4090  2507.2439 H        767 DT      0.0000
   1870 H5''       4.7518     6.9651  2506.2008 H        767 DT      0.0000
   1871 H4'        2.6558     7.2797  2507.3691 H        767 DT      0.0000
   1872 H3'        4.1136     8.0385  2509.6367 H        767 DT      0.0000
   1873 H2'        4.6826     5.6699  2510.1094 H        767 DT      0.0000
   1874 H2''       3.2262     5.9701  2511.1233 H        767 DT      0.0000
   1875 H1'        1.7392     5.3109  2509.2827 H        767 DT      0.0000
   1876 H3         1.3481     0.8641  2509.8699 H        767 DT      0.0000
   1877 H6         5.1174     3.8366  2509.6532 H        767 DT      0.0000
   1878 H71        5.9078     0.3123  2510.3762 H        767 DT      0.0000
   1879 H72        6.5039     1.5832  2509.2820 H        767 DT      0.0000
   1880 H73        6.3549     1.9081  2511.0257 H        767 DT      0.0000
   1881 P         -5.7774    -6.3526  2511.9221 P.3      767 DA      0.0000
   1882 OP1       -7.0529    -6.0127  2512.7034 O.co2    767 DA      0.0000
   1883 OP2       -6.1021    -7.1383  2510.7294 O.co2    767 DA      0.0000
   1884 O5'       -4.9793    -4.9432  2511.7473 O.3      767 DA      0.0000
   1885 C5'       -5.1938    -4.0499  2512.9037 C.3      767 DA      0.0000
   1886 C4'       -5.8964    -2.8235  2512.3759 C.3      767 DA      0.0000
   1887 O4'       -5.0145    -1.7526  2512.1536 O.3      767 DA      0.0000
   1888 C3'       -6.5894    -3.0646  2511.0354 C.3      767 DA      0.0000
   1889 O3'       -7.8514    -2.4456  2510.9602 O.3      767 DA      0.0000
   1890 C2'       -5.5297    -2.6304  2510.0388 C.3      767 DA      0.0000
   1891 C1'       -4.6352    -1.6631  2510.7627 C.3      767 DA      0.0000
   1892 N9        -3.2115    -1.9657  2510.5372 N.ar     767 DA      0.0000
   1893 C8        -2.6050    -3.1891  2510.3508 C.ar     767 DA      0.0000
   1894 N7        -1.3081    -3.1263  2510.1549 N.ar     767 DA      0.0000
   1895 C5        -1.0389    -1.7662  2510.2418 C.ar     767 DA      0.0000
   1896 C6         0.1724    -1.0434  2510.1361 C.ar     767 DA      0.0000
   1897 N6         1.3487    -1.6065  2509.9237 N.pl3    767 DA      0.0000
   1898 N1         0.0752     0.3092  2510.2599 N.ar     767 DA      0.0000
   1899 C2        -1.1266     0.9180  2510.4844 C.ar     767 DA      0.0000
   1900 N3        -2.2989     0.2976  2510.6003 N.ar     767 DA      0.0000
   1901 C4        -2.1896    -1.0461  2510.4641 C.ar     767 DA      0.0000
   1902 H5'       -5.8128    -4.5452  2513.6518 H        767 DA      0.0000
   1903 H5''      -4.2351    -3.7701  2513.3404 H        767 DA      0.0000
   1904 H4'       -6.6457    -2.5118  2513.1036 H        767 DA      0.0000
   1905 H3'       -6.7358    -4.1388  2510.9223 H        767 DA      0.0000
   1906 H2'       -5.9954    -2.1437  2509.1820 H        767 DA      0.0000
   1907 H2''      -4.9533    -3.4945  2509.7083 H        767 DA      0.0000
   1908 H1'       -4.8427    -0.6548  2510.4045 H        767 DA      0.0000
   1909 H8        -3.1505    -4.1212  2510.3647 H        767 DA      0.0000
   1910 H2        -1.1259     1.9941  2510.5756 H        767 DA      0.0000
   1911 H61        2.2023    -1.1684  2510.2391 H        767 DA      0.0000
   1912 H62        1.3950    -2.4906  2509.4374 H        767 DA      0.0000
   1913 P         -8.5791    -1.6947  2509.7756 P.3      766 DA      0.0000
   1914 OP1       -9.8482    -0.9583  2510.2955 O.co2    766 DA      0.0000
   1915 OP2       -8.9985    -2.7859  2508.8419 O.co2    766 DA      0.0000
   1916 O5'       -7.6104    -0.5585  2509.2729 O.3      766 DA      0.0000
   1917 C5'       -7.7928     0.7980  2509.7288 C.3      766 DA      0.0000
   1918 C4'       -6.7526     1.6436  2509.0268 C.3      766 DA      0.0000
   1919 O4'       -5.4999     1.0322  2508.9061 O.3      766 DA      0.0000
   1920 C3'       -7.1647     2.0724  2507.6193 C.3      766 DA      0.0000
   1921 O3'       -7.3478     3.5005  2507.5879 O.3      766 DA      0.0000
   1922 C2'       -6.0914     1.4568  2506.7198 C.3      766 DA      0.0000
   1923 C1'       -4.8939     1.3806  2507.6175 C.3      766 DA      0.0000
   1924 N9        -3.9212     0.3350  2507.3180 N.ar     766 DA      0.0000
   1925 C8        -4.1232    -1.0157  2507.1232 C.ar     766 DA      0.0000
   1926 N7        -3.0159    -1.6933  2506.9178 N.ar     766 DA      0.0000
   1927 C5        -2.0182    -0.7409  2506.9923 C.ar     766 DA      0.0000
   1928 C6        -0.6146    -0.8326  2506.8588 C.ar     766 DA      0.0000
   1929 N6         0.0336    -1.9677  2506.6156 N.pl3    766 DA      0.0000
   1930 N1         0.0648     0.3499  2507.0077 N.ar     766 DA      0.0000
   1931 C2        -0.5641     1.5140  2507.2602 C.ar     766 DA      0.0000
   1932 N3        -1.8834     1.6763  2507.3990 N.ar     766 DA      0.0000
   1933 C4        -2.5499     0.5096  2507.2518 C.ar     766 DA      0.0000
   1934 H5'       -8.7933     1.1473  2509.4736 H        766 DA      0.0000
   1935 H5''      -7.6460     0.8496  2510.8076 H        766 DA      0.0000
   1936 H4'       -6.6172     2.5499  2509.6170 H        766 DA      0.0000
   1937 H3'       -8.1188     1.6007  2507.3843 H        766 DA      0.0000
   1938 H2'       -6.3886     0.4647  2506.3799 H        766 DA      0.0000
   1939 H2''      -5.8890     2.1066  2505.8684 H        766 DA      0.0000
   1940 H1'       -4.4019     2.3515  2507.6786 H        766 DA      0.0000
   1941 H8        -5.1010    -1.4741  2507.1382 H        766 DA      0.0000
   1942 H2         0.0529     2.3948  2507.3592 H        766 DA      0.0000
   1943 H61        0.9997    -1.9844  2506.9096 H        766 DA      0.0000
   1944 H62       -0.4090    -2.7577  2506.1684 H        766 DA      0.0000
   1945 P         -7.7743     4.2019  2506.2029 P.3      765 DT      0.0000
   1946 OP1       -8.2634     5.6163  2506.2610 O.co2    765 DT      0.0000
   1947 OP2       -8.7614     3.2030  2505.6903 O.co2    765 DT      0.0000
   1948 O5'       -6.2643     4.2584  2505.4998 O.3      765 DT      0.0000
   1949 C5'       -5.2867     4.6459  2506.5121 C.3      765 DT      0.0000
   1950 C4'       -4.0857     5.2177  2505.8291 C.3      765 DT      0.0000
   1951 O4'       -3.0537     4.2946  2505.6487 O.3      765 DT      0.0000
   1952 C3'       -4.3766     5.8305  2504.4679 C.3      765 DT      0.0000
   1953 O3'       -3.5994     7.0042  2504.2006 O.3      765 DT      0.0000
   1954 C2'       -4.0632     4.6231  2503.5745 C.3      765 DT      0.0000
   1955 C1'       -2.8001     4.0880  2504.2146 C.3      765 DT      0.0000
   1956 N1        -2.6566     2.6381  2503.9846 N.am     765 DT      0.0000
   1957 C2        -1.3736     2.1342  2503.8630 C.2      765 DT      0.0000
   1958 O2        -0.3913     2.8770  2503.8998 O.2      765 DT      0.0000
   1959 N3        -1.2273     0.7839  2503.6956 N.am     765 DT      0.0000
   1960 C4        -2.2968    -0.0549  2503.6470 C.2      765 DT      0.0000
   1961 O4        -2.0693    -1.2876  2503.4615 O.2      765 DT      0.0000
   1962 C5        -3.6067     0.4811  2503.7954 C.2      765 DT      0.0000
   1963 C7        -4.8176    -0.4197  2503.7433 C.3      765 DT      0.0000
   1964 C6        -3.7324     1.8011  2503.9684 C.2      765 DT      0.0000
   1965 H5'       -5.7223     5.3943  2507.1742 H        765 DT      0.0000
   1966 H5''      -4.9949     3.7704  2507.0921 H        765 DT      0.0000
   1967 H4'       -3.6998     6.0137  2506.4662 H        765 DT      0.0000
   1968 H3'       -5.4371     6.0715  2504.3959 H        765 DT      0.0000
   1969 H2'       -4.8666     3.8871  2503.6051 H        765 DT      0.0000
   1970 H2''      -3.8710     4.9414  2502.5499 H        765 DT      0.0000
   1971 H1'       -1.9188     4.6358  2503.8806 H        765 DT      0.0000
   1972 H3        -0.2979     0.3989  2503.6054 H        765 DT      0.0000
   1973 H6        -4.7199     2.2182  2504.0998 H        765 DT      0.0000
   1974 H71       -5.2389    -0.4052  2502.7382 H        765 DT      0.0000
   1975 H72       -5.5639    -0.0663  2504.4549 H        765 DT      0.0000
   1976 H73       -4.5245    -1.4377  2503.9999 H        765 DT      0.0000
   1977 P         -3.7863     7.6521  2502.7107 P.3      764 DT      0.0000
   1978 OP1       -4.4450     9.0249  2502.8587 O.co2    764 DT      0.0000
   1979 OP2       -4.7390     6.7039  2502.0409 O.co2    764 DT      0.0000
   1980 O5'       -2.3829     7.7421  2502.0586 O.3      764 DT      0.0000
   1981 C5'       -1.1820     7.9192  2502.8100 C.3      764 DT      0.0000
   1982 C4'       -0.0614     7.2712  2502.0620 C.3      764 DT      0.0000
   1983 O4'       -0.0173     5.8709  2502.0051 O.3      764 DT      0.0000
   1984 C3'        0.1599     7.7024  2500.5960 C.3      764 DT      0.0000
   1985 O3'        1.5850     7.6285  2500.4922 O.3      764 DT      0.0000
   1986 C2'       -0.5332     6.5662  2499.8322 C.3      764 DT      0.0000
   1987 C1'        0.0807     5.4187  2500.6080 C.3      764 DT      0.0000
   1988 N1        -0.6124     4.1316  2500.5018 N.am     764 DT      0.0000
   1989 C2         0.2162     3.0015  2500.5012 C.2      764 DT      0.0000
   1990 O2         1.4433     3.1122  2500.5442 O.2      764 DT      0.0000
   1991 N3        -0.3963     1.7825  2500.4477 N.am     764 DT      0.0000
   1992 C4        -1.7507     1.6391  2500.3880 C.2      764 DT      0.0000
   1993 O4        -2.2229     0.4642  2500.3256 O.2      764 DT      0.0000
   1994 C5        -2.5677     2.8024  2500.3962 C.2      764 DT      0.0000
   1995 C7        -4.0740     2.6578  2500.3348 C.3      764 DT      0.0000
   1996 C6        -1.9643     3.9927  2500.4627 C.2      764 DT      0.0000
   1997 H5'       -0.9771     8.9827  2502.9322 H        764 DT      0.0000
   1998 H5''      -1.2891     7.4512  2503.7886 H        764 DT      0.0000
   1999 H4'        0.8457     7.5667  2502.5893 H        764 DT      0.0000
   2000 H3'       -0.2426     8.6892  2500.3673 H        764 DT      0.0000
   2001 H2'       -0.2619     6.5477  2498.7767 H        764 DT      0.0000
   2002 H2''      -1.6146     6.6010  2499.9638 H        764 DT      0.0000
   2003 H1'        1.1277     5.3004  2500.3289 H        764 DT      0.0000
   2004 H3         0.1783     0.9519  2500.4526 H        764 DT      0.0000
   2005 H6        -2.5764     4.8822  2500.4864 H        764 DT      0.0000
   2006 H71       -4.3364     1.6010  2500.2860 H        764 DT      0.0000
   2007 H72       -4.4518     3.1670  2499.4482 H        764 DT      0.0000
   2008 H73       -4.5182     3.1016  2501.2257 H        764 DT      0.0000
   2009 P          2.4656     8.1951  2499.3460 P.3      763 DC      0.0000
   2010 OP1        3.6184     8.9954  2499.9551 O.co2    763 DC      0.0000
   2011 OP2        1.5764     9.1102  2498.5642 O.co2    763 DC      0.0000
   2012 O5'        2.9397     6.8230  2498.6066 O.3      763 DC      0.0000
   2013 C5'        3.9512     6.0488  2499.3311 C.3      763 DC      0.0000
   2014 C4'        4.8222     5.4104  2498.2806 C.3      763 DC      0.0000
   2015 O4'        4.4667     4.0696  2498.0353 O.3      763 DC      0.0000
   2016 C3'        4.8116     6.1017  2496.9162 C.3      763 DC      0.0000
   2017 O3'        6.0509     6.0399  2496.2069 O.3      763 DC      0.0000
   2018 C2'        3.6564     5.3596  2496.2300 C.3      763 DC      0.0000
   2019 C1'        3.8058     3.9411  2496.7766 C.3      763 DC      0.0000
   2020 N1         2.4511     3.3523  2496.8944 N.am     763 DC      0.0000
   2021 C2         2.3643     1.9610  2496.9117 C.2      763 DC      0.0000
   2022 O2         3.3797     1.2551  2496.8430 O.2      763 DC      0.0000
   2023 N3         1.1144     1.4127  2497.0149 N.2      763 DC      0.0000
   2024 C4        -0.0064     2.1775  2497.0856 C.2      763 DC      0.0000
   2025 N4        -1.2034     1.5957  2497.1876 N.pl3    763 DC      0.0000
   2026 C5         0.1103     3.5953  2497.0605 C.2      763 DC      0.0000
   2027 C6         1.3385     4.1331  2496.9669 C.2      763 DC      0.0000
   2028 H5'        4.5454     6.7050  2499.9671 H        763 DC      0.0000
   2029 H5''       3.4702     5.2793  2499.9350 H        763 DC      0.0000
   2030 H4'        5.8479     5.4196  2498.6494 H        763 DC      0.0000
   2031 H3'        4.5317     7.1465  2497.0503 H        763 DC      0.0000
   2032 H2'        3.7654     5.3776  2495.1457 H        763 DC      0.0000
   2033 H2''       2.6977     5.7855  2496.5260 H        763 DC      0.0000
   2034 H1'        4.4132     3.3431  2496.0972 H        763 DC      0.0000
   2035 H5        -0.7663     4.2238  2497.1153 H        763 DC      0.0000
   2036 H6         1.4449     5.2078  2496.9488 H        763 DC      0.0000
   2037 H41       -1.2752     0.5884  2497.2083 H        763 DC      0.0000
   2038 H42       -2.0373     2.1627  2497.2440 H        763 DC      0.0000
   2039 P          6.2223     5.8808  2494.5749 P.3      762 DA      0.0000
   2040 OP1        7.5821     6.4190  2494.1854 O.co2    762 DA      0.0000
   2041 OP2        5.0682     6.6277  2494.0048 O.co2    762 DA      0.0000
   2042 O5'        6.2496     4.2932  2494.4093 O.3      762 DA      0.0000
   2043 C5'        7.4545     3.5699  2494.8748 C.3      762 DA      0.0000
   2044 C4'        7.4296     2.3298  2493.9975 C.3      762 DA      0.0000
   2045 O4'        6.2432     1.5713  2494.2648 O.3      762 DA      0.0000
   2046 C3'        7.3569     2.6464  2492.4931 C.3      762 DA      0.0000
   2047 O3'        7.7102     1.5216  2491.7040 O.3      762 DA      0.0000
   2048 C2'        5.8376     2.8125  2492.3056 C.3      762 DA      0.0000
   2049 C1'        5.4679     1.5063  2493.0603 C.3      762 DA      0.0000
   2050 N9         4.0171     1.5668  2493.2057 N.ar     762 DA      0.0000
   2051 C8         3.2486     2.7070  2493.2786 C.ar     762 DA      0.0000
   2052 N7         1.9671     2.4634  2493.3932 N.ar     762 DA      0.0000
   2053 C5         1.8969     1.0588  2493.3868 C.ar     762 DA      0.0000
   2054 C6         0.7827     0.1809  2493.4868 C.ar     762 DA      0.0000
   2055 N6        -0.4815     0.5956  2493.6096 N.pl3    762 DA      0.0000
   2056 N1         1.1039    -1.1426  2493.4516 N.ar     762 DA      0.0000
   2057 C2         2.3868    -1.5640  2493.3327 C.ar     762 DA      0.0000
   2058 N3         3.4774    -0.7974  2493.2413 N.ar     762 DA      0.0000
   2059 C4         3.1481     0.5058  2493.2688 C.ar     762 DA      0.0000
   2060 H5'        8.3583     4.1558  2494.7080 H        762 DA      0.0000
   2061 H5''       7.3592     3.2996  2495.9264 H        762 DA      0.0000
   2062 H4'        8.3090     1.7189  2494.2015 H        762 DA      0.0000
   2063 H3'        7.9154     3.5427  2492.2235 H        762 DA      0.0000
   2064 H2'        5.4448     3.7079  2492.7873 H        762 DA      0.0000
   2065 H2''       5.5542     2.7639  2491.2543 H        762 DA      0.0000
   2066 H1'        5.7540     0.6345  2492.4719 H        762 DA      0.0000
   2067 H8         3.6621     3.7041  2493.2445 H        762 DA      0.0000
   2068 H2         2.5440    -2.6322  2493.3095 H        762 DA      0.0000
   2069 H61       -0.6887     1.5838  2493.6343 H        762 DA      0.0000
   2070 H62       -1.2300    -0.0791  2493.6777 H        762 DA      0.0000
   2071 P          8.8080     1.6428  2490.5631 P.3      761 DC      0.0000
   2072 OP1       10.1016     1.4775  2491.3434 O.co2    761 DC      0.0000
   2073 OP2        8.7321     2.9158  2489.8375 O.co2    761 DC      0.0000
   2074 O5'        8.3696     0.3938  2489.5872 O.3      761 DC      0.0000
   2075 C5'        8.2160    -0.9159  2490.2563 C.3      761 DC      0.0000
   2076 C4'        7.0697    -1.6500  2489.6122 C.3      761 DC      0.0000
   2077 O4'        5.8173    -1.4296  2490.2494 O.3      761 DC      0.0000
   2078 C3'        6.8715    -1.2718  2488.1344 C.3      761 DC      0.0000
   2079 O3'        6.4001    -2.3405  2487.3231 O.3      761 DC      0.0000
   2080 C2'        5.7309    -0.2148  2488.3001 C.3      761 DC      0.0000
   2081 C1'        4.8648    -1.1753  2489.1957 C.3      761 DC      0.0000
   2082 N1         3.6101    -0.5109  2489.4335 N.am     761 DC      0.0000
   2083 C2         2.5039    -1.2825  2489.7507 C.2      761 DC      0.0000
   2084 O2         2.4091    -2.5069  2489.8912 O.2      761 DC      0.0000
   2085 N3         1.3115    -0.6433  2489.9489 N.2      761 DC      0.0000
   2086 C4         1.1889     0.7140  2489.8329 C.2      761 DC      0.0000
   2087 N4         0.0000     1.2983  2490.0490 N.pl3    761 DC      0.0000
   2088 C5         2.3327     1.4923  2489.5033 C.2      761 DC      0.0000
   2089 C6         3.4877     0.8444  2489.3116 C.2      761 DC      0.0000
   2090 H5'        9.1326    -1.4954  2490.1448 H        761 DC      0.0000
   2091 H5''       8.0052    -0.7640  2491.3149 H        761 DC      0.0000
   2092 H4'        7.2864    -2.7172  2489.6590 H        761 DC      0.0000
   2093 H3'        7.7717    -0.8223  2487.7154 H        761 DC      0.0000
   2094 H2'        6.0499     0.6901  2488.8172 H        761 DC      0.0000
   2095 H2''       5.2421     0.0088  2487.3518 H        761 DC      0.0000
   2096 H1'        4.6803    -2.1011  2488.6507 H        761 DC      0.0000
   2097 H5         2.2714     2.5667  2489.4112 H        761 DC      0.0000
   2098 H6         4.3633     1.4191  2489.0483 H        761 DC      0.0000
   2099 H41       -0.8032     0.7351  2490.2895 H        761 DC      0.0000
   2100 H42       -0.0914     2.3011  2489.9711 H        761 DC      0.0000
@<TRIPOS>BOND
     1      9     33 1
     2     41     65 1
     3     73     97 1
     4    105    127 1
     5    135    159 1
     6    197    222 1
     7    230    254 1
     8    262    287 1
     9    295    319 1
    10    327    351 1
    11      1      2 1
    12      1      3 1
    13      1      4 1
    14      4      5 1
    15      5      6 1
    16      6      7 1
    17      6      8 1
    18      7     11 1
    19      8      9 1
    20      8     10 1
    21     10     11 1
    22     11     12 1
    23     12     13 ar
    24     12     21 ar
    25     13     14 ar
    26     14     15 ar
    27     15     16 ar
    28     15     21 ar
    29     16     17 1
    30     16     18 ar
    31     18     19 ar
    32     19     20 ar
    33     20     21 ar
    34     33     34 1
    35     33     35 1
    36     33     36 1
    37     36     37 1
    38     37     38 1
    39     38     39 1
    40     38     40 1
    41     39     43 1
    42     40     41 1
    43     40     42 1
    44     42     43 1
    45     43     44 1
    46     44     45 am
    47     44     52 1
    48     45     46 2
    49     45     47 am
    50     47     48 am
    51     48     49 2
    52     48     50 1
    53     50     51 1
    54     50     52 2
    55     65     66 1
    56     65     67 1
    57     65     68 1
    58     68     69 1
    59     69     70 1
    60     70     71 1
    61     70     72 1
    62     71     75 1
    63     72     73 1
    64     72     74 1
    65     74     75 1
    66     75     76 1
    67     76     77 am
    68     76     84 1
    69     77     78 2
    70     77     79 am
    71     79     80 am
    72     80     81 2
    73     80     82 1
    74     82     83 1
    75     82     84 2
    76     97     98 1
    77     97     99 1
    78     97    100 1
    79    100    101 1
    80    101    102 1
    81    102    103 1
    82    102    104 1
    83    103    107 1
    84    104    105 1
    85    104    106 1
    86    106    107 1
    87    107    108 1
    88    108    109 am
    89    108    115 1
    90    109    110 2
    91    109    111 1
    92    111    112 2
    93    112    113 2
    94    112    114 2
    95    114    115 2
    96    127    128 1
    97    127    129 1
    98    127    130 1
    99    130    131 1
   100    131    132 1
   101    132    133 1
   102    132    134 1
   103    133    137 1
   104    134    135 1
   105    134    136 1
   106    136    137 1
   107    137    138 1
   108    138    139 ar
   109    138    147 ar
   110    139    140 ar
   111    140    141 ar
   112    141    142 ar
   113    141    147 ar
   114    142    143 1
   115    142    144 ar
   116    144    145 ar
   117    145    146 ar
   118    146    147 ar
   119    159    160 1
   120    159    161 1
   121    159    162 1
   122    162    163 1
   123    163    164 1
   124    164    165 1
   125    164    166 1
   126    165    169 1
   127    166    167 1
   128    166    168 1
   129    168    169 1
   130    169    170 1
   131    170    171 am
   132    170    177 1
   133    171    172 2
   134    171    173 1
   135    173    174 2
   136    174    175 2
   137    174    176 2
   138    176    177 2
   139    189    190 1
   140    189    191 1
   141    189    192 1
   142    192    193 1
   143    193    194 1
   144    194    195 1
   145    194    196 1
   146    195    199 1
   147    196    197 1
   148    196    198 1
   149    198    199 1
   150    199    200 1
   151    200    201 ar
   152    200    210 ar
   153    201    202 ar
   154    202    203 ar
   155    203    204 1
   156    203    210 ar
   157    204    205 2
   158    204    206 am
   159    206    207 1
   160    207    208 2
   161    207    209 2
   162    209    210 1
   163    222    223 1
   164    222    224 1
   165    222    225 1
   166    225    226 1
   167    226    227 1
   168    227    228 1
   169    227    229 1
   170    228    232 1
   171    229    230 1
   172    229    231 1
   173    231    232 1
   174    232    233 1
   175    233    234 am
   176    233    241 1
   177    234    235 2
   178    234    236 am
   179    236    237 am
   180    237    238 2
   181    237    239 1
   182    239    240 1
   183    239    241 2
   184    254    255 1
   185    254    256 1
   186    254    257 1
   187    257    258 1
   188    258    259 1
   189    259    260 1
   190    259    261 1
   191    260    264 1
   192    261    262 1
   193    261    263 1
   194    263    264 1
   195    264    265 1
   196    265    266 ar
   197    265    275 ar
   198    266    267 ar
   199    267    268 ar
   200    268    269 1
   201    268    275 ar
   202    269    270 2
   203    269    271 am
   204    271    272 1
   205    272    273 2
   206    272    274 2
   207    274    275 1
   208    287    288 1
   209    287    289 1
   210    287    290 1
   211    290    291 1
   212    291    292 1
   213    292    293 1
   214    292    294 1
   215    293    297 1
   216    294    295 1
   217    294    296 1
   218    296    297 1
   219    297    298 1
   220    298    299 ar
   221    298    307 ar
   222    299    300 ar
   223    300    301 ar
   224    301    302 ar
   225    301    307 ar
   226    302    303 1
   227    302    304 ar
   228    304    305 ar
   229    305    306 ar
   230    306    307 ar
   231    319    320 1
   232    319    321 1
   233    319    322 1
   234    322    323 1
   235    323    324 1
   236    324    325 1
   237    324    326 1
   238    325    329 1
   239    326    327 1
   240    326    328 1
   241    328    329 1
   242    329    330 1
   243    330    331 ar
   244    330    339 ar
   245    331    332 ar
   246    332    333 ar
   247    333    334 ar
   248    333    339 ar
   249    334    335 1
   250    334    336 ar
   251    336    337 ar
   252    337    338 ar
   253    338    339 ar
   254    351    352 1
   255    351    353 1
   256    351    354 1
   257    354    355 1
   258    355    356 1
   259    356    357 1
   260    356    358 1
   261    357    361 1
   262    358    359 1
   263    358    360 1
   264    360    361 1
   265    361    362 1
   266    362    363 am
   267    362    370 1
   268    363    364 2
   269    363    365 am
   270    365    366 am
   271    366    367 2
   272    366    368 1
   273    368    369 1
   274    368    370 2
   275     22      5 1
   276     23      5 1
   277     24      6 1
   278     25      8 1
   279     26     10 1
   280     27     10 1
   281     28     11 1
   282     29     13 1
   283     30     19 1
   284     53     37 1
   285     54     37 1
   286     55     38 1
   287     56     40 1
   288     57     42 1
   289     58     42 1
   290     59     43 1
   291     60     47 1
   292     61     52 1
   293     85     69 1
   294     86     69 1
   295     87     70 1
   296     88     72 1
   297     89     74 1
   298     90     74 1
   299     91     75 1
   300     92     79 1
   301     93     84 1
   302    116    101 1
   303    117    101 1
   304    118    102 1
   305    119    104 1
   306    120    106 1
   307    121    106 1
   308    122    107 1
   309    123    114 1
   310    124    115 1
   311    148    131 1
   312    149    131 1
   313    150    132 1
   314    151    134 1
   315    152    136 1
   316    153    136 1
   317    154    137 1
   318    155    139 1
   319    156    145 1
   320    178    163 1
   321    179    163 1
   322    180    164 1
   323    181    166 1
   324    182    168 1
   325    183    168 1
   326    184    169 1
   327    185    176 1
   328    186    177 1
   329    211    193 1
   330    212    193 1
   331    213    194 1
   332    214    196 1
   333    215    198 1
   334    216    198 1
   335    217    199 1
   336    218    201 1
   337    219    206 1
   338    242    226 1
   339    243    226 1
   340    244    227 1
   341    245    229 1
   342    246    231 1
   343    247    231 1
   344    248    232 1
   345    249    236 1
   346    250    241 1
   347    276    258 1
   348    277    258 1
   349    278    259 1
   350    279    261 1
   351    280    263 1
   352    281    263 1
   353    282    264 1
   354    283    266 1
   355    284    271 1
   356    308    291 1
   357    309    291 1
   358    310    292 1
   359    311    294 1
   360    312    296 1
   361    313    296 1
   362    314    297 1
   363    315    299 1
   364    316    305 1
   365    340    323 1
   366    341    323 1
   367    342    324 1
   368    343    326 1
   369    344    328 1
   370    345    328 1
   371    346    329 1
   372    347    331 1
   373    348    337 1
   374    371    355 1
   375    372    355 1
   376    373    356 1
   377    374    358 1
   378    375    360 1
   379    376    360 1
   380    377    361 1
   381    378    365 1
   382    379    370 1
   383    125    113 1
   384    126    113 1
   385    187    175 1
   386    188    175 1
   387    220    208 1
   388    221    208 1
   389    285    273 1
   390    286    273 1
   391     31     17 1
   392     32     17 1
   393    157    143 1
   394    158    143 1
   395    317    303 1
   396    318    303 1
   397    349    335 1
   398    350    335 1
   399     62     51 1
   400     63     51 1
   401     64     51 1
   402     94     83 1
   403     95     83 1
   404     96     83 1
   405    251    240 1
   406    252    240 1
   407    253    240 1
   408    380    369 1
   409    381    369 1
   410    382    369 1
   411    167    383 1
   412    189    997 1
   413    391    416 1
   414    424    448 1
   415    456    481 1
   416    489    513 1
   417    521    545 1
   418    553    577 1
   419    585    609 1
   420    617    639 1
   421    647    671 1
   422    709    734 1
   423    742    766 1
   424    774    799 1
   425    807    831 1
   426    839    863 1
   427    871    895 1
   428    903    927 1
   429    935    957 1
   430    965    989 1
   431    383    384 1
   432    383    385 1
   433    383    386 1
   434    386    387 1
   435    387    388 1
   436    388    389 1
   437    388    390 1
   438    389    393 1
   439    390    391 1
   440    390    392 1
   441    392    393 1
   442    393    394 1
   443    394    395 ar
   444    394    404 ar
   445    395    396 ar
   446    396    397 ar
   447    397    398 1
   448    397    404 ar
   449    398    399 2
   450    398    400 am
   451    400    401 1
   452    401    402 2
   453    401    403 2
   454    403    404 1
   455    416    417 1
   456    416    418 1
   457    416    419 1
   458    419    420 1
   459    420    421 1
   460    421    422 1
   461    421    423 1
   462    422    426 1
   463    423    424 1
   464    423    425 1
   465    425    426 1
   466    426    427 1
   467    427    428 am
   468    427    435 1
   469    428    429 2
   470    428    430 am
   471    430    431 am
   472    431    432 2
   473    431    433 1
   474    433    434 1
   475    433    435 2
   476    448    449 1
   477    448    450 1
   478    448    451 1
   479    451    452 1
   480    452    453 1
   481    453    454 1
   482    453    455 1
   483    454    458 1
   484    455    456 1
   485    455    457 1
   486    457    458 1
   487    458    459 1
   488    459    460 ar
   489    459    469 ar
   490    460    461 ar
   491    461    462 ar
   492    462    463 1
   493    462    469 ar
   494    463    464 2
   495    463    465 am
   496    465    466 1
   497    466    467 2
   498    466    468 2
   499    468    469 1
   500    481    482 1
   501    481    483 1
   502    481    484 1
   503    484    485 1
   504    485    486 1
   505    486    487 1
   506    486    488 1
   507    487    491 1
   508    488    489 1
   509    488    490 1
   510    490    491 1
   511    491    492 1
   512    492    493 ar
   513    492    501 ar
   514    493    494 ar
   515    494    495 ar
   516    495    496 ar
   517    495    501 ar
   518    496    497 1
   519    496    498 ar
   520    498    499 ar
   521    499    500 ar
   522    500    501 ar
   523    513    514 1
   524    513    515 1
   525    513    516 1
   526    516    517 1
   527    517    518 1
   528    518    519 1
   529    518    520 1
   530    519    523 1
   531    520    521 1
   532    520    522 1
   533    522    523 1
   534    523    524 1
   535    524    525 ar
   536    524    533 ar
   537    525    526 ar
   538    526    527 ar
   539    527    528 ar
   540    527    533 ar
   541    528    529 1
   542    528    530 ar
   543    530    531 ar
   544    531    532 ar
   545    532    533 ar
   546    545    546 1
   547    545    547 1
   548    545    548 1
   549    548    549 1
   550    549    550 1
   551    550    551 1
   552    550    552 1
   553    551    555 1
   554    552    553 1
   555    552    554 1
   556    554    555 1
   557    555    556 1
   558    556    557 am
   559    556    564 1
   560    557    558 2
   561    557    559 am
   562    559    560 am
   563    560    561 2
   564    560    562 1
   565    562    563 1
   566    562    564 2
   567    577    578 1
   568    577    579 1
   569    577    580 1
   570    580    581 1
   571    581    582 1
   572    582    583 1
   573    582    584 1
   574    583    587 1
   575    584    585 1
   576    584    586 1
   577    586    587 1
   578    587    588 1
   579    588    589 am
   580    588    596 1
   581    589    590 2
   582    589    591 am
   583    591    592 am
   584    592    593 2
   585    592    594 1
   586    594    595 1
   587    594    596 2
   588    609    610 1
   589    609    611 1
   590    609    612 1
   591    612    613 1
   592    613    614 1
   593    614    615 1
   594    614    616 1
   595    615    619 1
   596    616    617 1
   597    616    618 1
   598    618    619 1
   599    619    620 1
   600    620    621 am
   601    620    627 1
   602    621    622 2
   603    621    623 1
   604    623    624 2
   605    624    625 2
   606    624    626 2
   607    626    627 2
   608    639    640 1
   609    639    641 1
   610    639    642 1
   611    642    643 1
   612    643    644 1
   613    644    645 1
   614    644    646 1
   615    645    649 1
   616    646    647 1
   617    646    648 1
   618    648    649 1
   619    649    650 1
   620    650    651 ar
   621    650    659 ar
   622    651    652 ar
   623    652    653 ar
   624    653    654 ar
   625    653    659 ar
   626    654    655 1
   627    654    656 ar
   628    656    657 ar
   629    657    658 ar
   630    658    659 ar
   631    671    672 1
   632    671    673 1
   633    671    674 1
   634    674    675 1
   635    675    676 1
   636    676    677 1
   637    676    678 1
   638    677    681 1
   639    678    679 1
   640    678    680 1
   641    680    681 1
   642    681    682 1
   643    682    683 am
   644    682    689 1
   645    683    684 2
   646    683    685 1
   647    685    686 2
   648    686    687 2
   649    686    688 2
   650    688    689 2
   651    701    702 1
   652    701    703 1
   653    701    704 1
   654    704    705 1
   655    705    706 1
   656    706    707 1
   657    706    708 1
   658    707    711 1
   659    708    709 1
   660    708    710 1
   661    710    711 1
   662    711    712 1
   663    712    713 ar
   664    712    722 ar
   665    713    714 ar
   666    714    715 ar
   667    715    716 1
   668    715    722 ar
   669    716    717 2
   670    716    718 am
   671    718    719 1
   672    719    720 2
   673    719    721 2
   674    721    722 1
   675    734    735 1
   676    734    736 1
   677    734    737 1
   678    737    738 1
   679    738    739 1
   680    739    740 1
   681    739    741 1
   682    740    744 1
   683    741    742 1
   684    741    743 1
   685    743    744 1
   686    744    745 1
   687    745    746 am
   688    745    753 1
   689    746    747 2
   690    746    748 am
   691    748    749 am
   692    749    750 2
   693    749    751 1
   694    751    752 1
   695    751    753 2
   696    766    767 1
   697    766    768 1
   698    766    769 1
   699    769    770 1
   700    770    771 1
   701    771    772 1
   702    771    773 1
   703    772    776 1
   704    773    774 1
   705    773    775 1
   706    775    776 1
   707    776    777 1
   708    777    778 ar
   709    777    787 ar
   710    778    779 ar
   711    779    780 ar
   712    780    781 1
   713    780    787 ar
   714    781    782 2
   715    781    783 am
   716    783    784 1
   717    784    785 2
   718    784    786 2
   719    786    787 1
   720    799    800 1
   721    799    801 1
   722    799    802 1
   723    802    803 1
   724    803    804 1
   725    804    805 1
   726    804    806 1
   727    805    809 1
   728    806    807 1
   729    806    808 1
   730    808    809 1
   731    809    810 1
   732    810    811 ar
   733    810    819 ar
   734    811    812 ar
   735    812    813 ar
   736    813    814 ar
   737    813    819 ar
   738    814    815 1
   739    814    816 ar
   740    816    817 ar
   741    817    818 ar
   742    818    819 ar
   743    831    832 1
   744    831    833 1
   745    831    834 1
   746    834    835 1
   747    835    836 1
   748    836    837 1
   749    836    838 1
   750    837    841 1
   751    838    839 1
   752    838    840 1
   753    840    841 1
   754    841    842 1
   755    842    843 ar
   756    842    851 ar
   757    843    844 ar
   758    844    845 ar
   759    845    846 ar
   760    845    851 ar
   761    846    847 1
   762    846    848 ar
   763    848    849 ar
   764    849    850 ar
   765    850    851 ar
   766    863    864 1
   767    863    865 1
   768    863    866 1
   769    866    867 1
   770    867    868 1
   771    868    869 1
   772    868    870 1
   773    869    873 1
   774    870    871 1
   775    870    872 1
   776    872    873 1
   777    873    874 1
   778    874    875 am
   779    874    882 1
   780    875    876 2
   781    875    877 am
   782    877    878 am
   783    878    879 2
   784    878    880 1
   785    880    881 1
   786    880    882 2
   787    895    896 1
   788    895    897 1
   789    895    898 1
   790    898    899 1
   791    899    900 1
   792    900    901 1
   793    900    902 1
   794    901    905 1
   795    902    903 1
   796    902    904 1
   797    904    905 1
   798    905    906 1
   799    906    907 am
   800    906    914 1
   801    907    908 2
   802    907    909 am
   803    909    910 am
   804    910    911 2
   805    910    912 1
   806    912    913 1
   807    912    914 2
   808    927    928 1
   809    927    929 1
   810    927    930 1
   811    930    931 1
   812    931    932 1
   813    932    933 1
   814    932    934 1
   815    933    937 1
   816    934    935 1
   817    934    936 1
   818    936    937 1
   819    937    938 1
   820    938    939 am
   821    938    945 1
   822    939    940 2
   823    939    941 1
   824    941    942 2
   825    942    943 2
   826    942    944 2
   827    944    945 2
   828    957    958 1
   829    957    959 1
   830    957    960 1
   831    960    961 1
   832    961    962 1
   833    962    963 1
   834    962    964 1
   835    963    967 1
   836    964    965 1
   837    964    966 1
   838    966    967 1
   839    967    968 1
   840    968    969 ar
   841    968    977 ar
   842    969    970 ar
   843    970    971 ar
   844    971    972 ar
   845    971    977 ar
   846    972    973 1
   847    972    974 ar
   848    974    975 ar
   849    975    976 ar
   850    976    977 ar
   851    989    990 1
   852    989    991 1
   853    989    992 1
   854    992    993 1
   855    993    994 1
   856    994    995 1
   857    994    996 1
   858    995    999 1
   859    996    997 1
   860    996    998 1
   861    998    999 1
   862    999   1000 1
   863   1000   1001 am
   864   1000   1007 1
   865   1001   1002 2
   866   1001   1003 1
   867   1003   1004 2
   868   1004   1005 2
   869   1004   1006 2
   870   1006   1007 2
   871    405    387 1
   872    406    387 1
   873    407    388 1
   874    408    390 1
   875    409    392 1
   876    410    392 1
   877    411    393 1
   878    412    395 1
   879    413    400 1
   880    436    420 1
   881    437    420 1
   882    438    421 1
   883    439    423 1
   884    440    425 1
   885    441    425 1
   886    442    426 1
   887    443    430 1
   888    444    435 1
   889    470    452 1
   890    471    452 1
   891    472    453 1
   892    473    455 1
   893    474    457 1
   894    475    457 1
   895    476    458 1
   896    477    460 1
   897    478    465 1
   898    502    485 1
   899    503    485 1
   900    504    486 1
   901    505    488 1
   902    506    490 1
   903    507    490 1
   904    508    491 1
   905    509    493 1
   906    510    499 1
   907    534    517 1
   908    535    517 1
   909    536    518 1
   910    537    520 1
   911    538    522 1
   912    539    522 1
   913    540    523 1
   914    541    525 1
   915    542    531 1
   916    565    549 1
   917    566    549 1
   918    567    550 1
   919    568    552 1
   920    569    554 1
   921    570    554 1
   922    571    555 1
   923    572    559 1
   924    573    564 1
   925    597    581 1
   926    598    581 1
   927    599    582 1
   928    600    584 1
   929    601    586 1
   930    602    586 1
   931    603    587 1
   932    604    591 1
   933    605    596 1
   934    628    613 1
   935    629    613 1
   936    630    614 1
   937    631    616 1
   938    632    618 1
   939    633    618 1
   940    634    619 1
   941    635    626 1
   942    636    627 1
   943    660    643 1
   944    661    643 1
   945    662    644 1
   946    663    646 1
   947    664    648 1
   948    665    648 1
   949    666    649 1
   950    667    651 1
   951    668    657 1
   952    690    675 1
   953    691    675 1
   954    692    676 1
   955    693    678 1
   956    694    680 1
   957    695    680 1
   958    696    681 1
   959    697    688 1
   960    698    689 1
   961    723    705 1
   962    724    705 1
   963    725    706 1
   964    726    708 1
   965    727    710 1
   966    728    710 1
   967    729    711 1
   968    730    713 1
   969    731    718 1
   970    754    738 1
   971    755    738 1
   972    756    739 1
   973    757    741 1
   974    758    743 1
   975    759    743 1
   976    760    744 1
   977    761    748 1
   978    762    753 1
   979    788    770 1
   980    789    770 1
   981    790    771 1
   982    791    773 1
   983    792    775 1
   984    793    775 1
   985    794    776 1
   986    795    778 1
   987    796    783 1
   988    820    803 1
   989    821    803 1
   990    822    804 1
   991    823    806 1
   992    824    808 1
   993    825    808 1
   994    826    809 1
   995    827    811 1
   996    828    817 1
   997    852    835 1
   998    853    835 1
   999    854    836 1
  1000    855    838 1
  1001    856    840 1
  1002    857    840 1
  1003    858    841 1
  1004    859    843 1
  1005    860    849 1
  1006    883    867 1
  1007    884    867 1
  1008    885    868 1
  1009    886    870 1
  1010    887    872 1
  1011    888    872 1
  1012    889    873 1
  1013    890    877 1
  1014    891    882 1
  1015    915    899 1
  1016    916    899 1
  1017    917    900 1
  1018    918    902 1
  1019    919    904 1
  1020    920    904 1
  1021    921    905 1
  1022    922    909 1
  1023    923    914 1
  1024    946    931 1
  1025    947    931 1
  1026    948    932 1
  1027    949    934 1
  1028    950    936 1
  1029    951    936 1
  1030    952    937 1
  1031    953    944 1
  1032    954    945 1
  1033    978    961 1
  1034    979    961 1
  1035    980    962 1
  1036    981    964 1
  1037    982    966 1
  1038    983    966 1
  1039    984    967 1
  1040    985    969 1
  1041    986    975 1
  1042   1008    993 1
  1043   1009    993 1
  1044   1010    994 1
  1045   1011    996 1
  1046   1012    998 1
  1047   1013    998 1
  1048   1014    999 1
  1049   1015   1006 1
  1050   1016   1007 1
  1051    414    402 1
  1052    415    402 1
  1053    479    467 1
  1054    480    467 1
  1055    637    625 1
  1056    638    625 1
  1057    699    687 1
  1058    700    687 1
  1059    732    720 1
  1060    733    720 1
  1061    797    785 1
  1062    798    785 1
  1063    955    943 1
  1064    956    943 1
  1065   1017   1005 1
  1066   1018   1005 1
  1067    511    497 1
  1068    512    497 1
  1069    543    529 1
  1070    544    529 1
  1071    669    655 1
  1072    670    655 1
  1073    829    815 1
  1074    830    815 1
  1075    861    847 1
  1076    862    847 1
  1077    987    973 1
  1078    988    973 1
  1079    445    434 1
  1080    446    434 1
  1081    447    434 1
  1082    574    563 1
  1083    575    563 1
  1084    576    563 1
  1085    606    595 1
  1086    607    595 1
  1087    608    595 1
  1088    763    752 1
  1089    764    752 1
  1090    765    752 1
  1091    892    881 1
  1092    893    881 1
  1093    894    881 1
  1094    924    913 1
  1095    925    913 1
  1096    926    913 1
  1097    679   1019 1
  1098    701   1633 1
  1099   1027   1052 1
  1100   1060   1084 1
  1101   1092   1117 1
  1102   1125   1149 1
  1103   1157   1181 1
  1104   1189   1213 1
  1105   1221   1245 1
  1106   1253   1275 1
  1107   1283   1307 1
  1108   1345   1370 1
  1109   1378   1402 1
  1110   1410   1435 1
  1111   1443   1467 1
  1112   1475   1499 1
  1113   1507   1531 1
  1114   1539   1563 1
  1115   1571   1593 1
  1116   1601   1625 1
  1117   1019   1020 1
  1118   1019   1021 1
  1119   1019   1022 1
  1120   1022   1023 1
  1121   1023   1024 1
  1122   1024   1025 1
  1123   1024   1026 1
  1124   1025   1029 1
  1125   1026   1027 1
  1126   1026   1028 1
  1127   1028   1029 1
  1128   1029   1030 1
  1129   1030   1031 ar
  1130   1030   1040 ar
  1131   1031   1032 ar
  1132   1032   1033 ar
  1133   1033   1034 1
  1134   1033   1040 ar
  1135   1034   1035 2
  1136   1034   1036 am
  1137   1036   1037 1
  1138   1037   1038 2
  1139   1037   1039 2
  1140   1039   1040 1
  1141   1052   1053 1
  1142   1052   1054 1
  1143   1052   1055 1
  1144   1055   1056 1
  1145   1056   1057 1
  1146   1057   1058 1
  1147   1057   1059 1
  1148   1058   1062 1
  1149   1059   1060 1
  1150   1059   1061 1
  1151   1061   1062 1
  1152   1062   1063 1
  1153   1063   1064 am
  1154   1063   1071 1
  1155   1064   1065 2
  1156   1064   1066 am
  1157   1066   1067 am
  1158   1067   1068 2
  1159   1067   1069 1
  1160   1069   1070 1
  1161   1069   1071 2
  1162   1084   1085 1
  1163   1084   1086 1
  1164   1084   1087 1
  1165   1087   1088 1
  1166   1088   1089 1
  1167   1089   1090 1
  1168   1089   1091 1
  1169   1090   1094 1
  1170   1091   1092 1
  1171   1091   1093 1
  1172   1093   1094 1
  1173   1094   1095 1
  1174   1095   1096 ar
  1175   1095   1105 ar
  1176   1096   1097 ar
  1177   1097   1098 ar
  1178   1098   1099 1
  1179   1098   1105 ar
  1180   1099   1100 2
  1181   1099   1101 am
  1182   1101   1102 1
  1183   1102   1103 2
  1184   1102   1104 2
  1185   1104   1105 1
  1186   1117   1118 1
  1187   1117   1119 1
  1188   1117   1120 1
  1189   1120   1121 1
  1190   1121   1122 1
  1191   1122   1123 1
  1192   1122   1124 1
  1193   1123   1127 1
  1194   1124   1125 1
  1195   1124   1126 1
  1196   1126   1127 1
  1197   1127   1128 1
  1198   1128   1129 ar
  1199   1128   1137 ar
  1200   1129   1130 ar
  1201   1130   1131 ar
  1202   1131   1132 ar
  1203   1131   1137 ar
  1204   1132   1133 1
  1205   1132   1134 ar
  1206   1134   1135 ar
  1207   1135   1136 ar
  1208   1136   1137 ar
  1209   1149   1150 1
  1210   1149   1151 1
  1211   1149   1152 1
  1212   1152   1153 1
  1213   1153   1154 1
  1214   1154   1155 1
  1215   1154   1156 1
  1216   1155   1159 1
  1217   1156   1157 1
  1218   1156   1158 1
  1219   1158   1159 1
  1220   1159   1160 1
  1221   1160   1161 ar
  1222   1160   1169 ar
  1223   1161   1162 ar
  1224   1162   1163 ar
  1225   1163   1164 ar
  1226   1163   1169 ar
  1227   1164   1165 1
  1228   1164   1166 ar
  1229   1166   1167 ar
  1230   1167   1168 ar
  1231   1168   1169 ar
  1232   1181   1182 1
  1233   1181   1183 1
  1234   1181   1184 1
  1235   1184   1185 1
  1236   1185   1186 1
  1237   1186   1187 1
  1238   1186   1188 1
  1239   1187   1191 1
  1240   1188   1189 1
  1241   1188   1190 1
  1242   1190   1191 1
  1243   1191   1192 1
  1244   1192   1193 am
  1245   1192   1200 1
  1246   1193   1194 2
  1247   1193   1195 am
  1248   1195   1196 am
  1249   1196   1197 2
  1250   1196   1198 1
  1251   1198   1199 1
  1252   1198   1200 2
  1253   1213   1214 1
  1254   1213   1215 1
  1255   1213   1216 1
  1256   1216   1217 1
  1257   1217   1218 1
  1258   1218   1219 1
  1259   1218   1220 1
  1260   1219   1223 1
  1261   1220   1221 1
  1262   1220   1222 1
  1263   1222   1223 1
  1264   1223   1224 1
  1265   1224   1225 am
  1266   1224   1232 1
  1267   1225   1226 2
  1268   1225   1227 am
  1269   1227   1228 am
  1270   1228   1229 2
  1271   1228   1230 1
  1272   1230   1231 1
  1273   1230   1232 2
  1274   1245   1246 1
  1275   1245   1247 1
  1276   1245   1248 1
  1277   1248   1249 1
  1278   1249   1250 1
  1279   1250   1251 1
  1280   1250   1252 1
  1281   1251   1255 1
  1282   1252   1253 1
  1283   1252   1254 1
  1284   1254   1255 1
  1285   1255   1256 1
  1286   1256   1257 am
  1287   1256   1263 1
  1288   1257   1258 2
  1289   1257   1259 1
  1290   1259   1260 2
  1291   1260   1261 2
  1292   1260   1262 2
  1293   1262   1263 2
  1294   1275   1276 1
  1295   1275   1277 1
  1296   1275   1278 1
  1297   1278   1279 1
  1298   1279   1280 1
  1299   1280   1281 1
  1300   1280   1282 1
  1301   1281   1285 1
  1302   1282   1283 1
  1303   1282   1284 1
  1304   1284   1285 1
  1305   1285   1286 1
  1306   1286   1287 ar
  1307   1286   1295 ar
  1308   1287   1288 ar
  1309   1288   1289 ar
  1310   1289   1290 ar
  1311   1289   1295 ar
  1312   1290   1291 1
  1313   1290   1292 ar
  1314   1292   1293 ar
  1315   1293   1294 ar
  1316   1294   1295 ar
  1317   1307   1308 1
  1318   1307   1309 1
  1319   1307   1310 1
  1320   1310   1311 1
  1321   1311   1312 1
  1322   1312   1313 1
  1323   1312   1314 1
  1324   1313   1317 1
  1325   1314   1315 1
  1326   1314   1316 1
  1327   1316   1317 1
  1328   1317   1318 1
  1329   1318   1319 am
  1330   1318   1325 1
  1331   1319   1320 2
  1332   1319   1321 1
  1333   1321   1322 2
  1334   1322   1323 2
  1335   1322   1324 2
  1336   1324   1325 2
  1337   1337   1338 1
  1338   1337   1339 1
  1339   1337   1340 1
  1340   1340   1341 1
  1341   1341   1342 1
  1342   1342   1343 1
  1343   1342   1344 1
  1344   1343   1347 1
  1345   1344   1345 1
  1346   1344   1346 1
  1347   1346   1347 1
  1348   1347   1348 1
  1349   1348   1349 ar
  1350   1348   1358 ar
  1351   1349   1350 ar
  1352   1350   1351 ar
  1353   1351   1352 1
  1354   1351   1358 ar
  1355   1352   1353 2
  1356   1352   1354 am
  1357   1354   1355 1
  1358   1355   1356 2
  1359   1355   1357 2
  1360   1357   1358 1
  1361   1370   1371 1
  1362   1370   1372 1
  1363   1370   1373 1
  1364   1373   1374 1
  1365   1374   1375 1
  1366   1375   1376 1
  1367   1375   1377 1
  1368   1376   1380 1
  1369   1377   1378 1
  1370   1377   1379 1
  1371   1379   1380 1
  1372   1380   1381 1
  1373   1381   1382 am
  1374   1381   1389 1
  1375   1382   1383 2
  1376   1382   1384 am
  1377   1384   1385 am
  1378   1385   1386 2
  1379   1385   1387 1
  1380   1387   1388 1
  1381   1387   1389 2
  1382   1402   1403 1
  1383   1402   1404 1
  1384   1402   1405 1
  1385   1405   1406 1
  1386   1406   1407 1
  1387   1407   1408 1
  1388   1407   1409 1
  1389   1408   1412 1
  1390   1409   1410 1
  1391   1409   1411 1
  1392   1411   1412 1
  1393   1412   1413 1
  1394   1413   1414 ar
  1395   1413   1423 ar
  1396   1414   1415 ar
  1397   1415   1416 ar
  1398   1416   1417 1
  1399   1416   1423 ar
  1400   1417   1418 2
  1401   1417   1419 am
  1402   1419   1420 1
  1403   1420   1421 2
  1404   1420   1422 2
  1405   1422   1423 1
  1406   1435   1436 1
  1407   1435   1437 1
  1408   1435   1438 1
  1409   1438   1439 1
  1410   1439   1440 1
  1411   1440   1441 1
  1412   1440   1442 1
  1413   1441   1445 1
  1414   1442   1443 1
  1415   1442   1444 1
  1416   1444   1445 1
  1417   1445   1446 1
  1418   1446   1447 ar
  1419   1446   1455 ar
  1420   1447   1448 ar
  1421   1448   1449 ar
  1422   1449   1450 ar
  1423   1449   1455 ar
  1424   1450   1451 1
  1425   1450   1452 ar
  1426   1452   1453 ar
  1427   1453   1454 ar
  1428   1454   1455 ar
  1429   1467   1468 1
  1430   1467   1469 1
  1431   1467   1470 1
  1432   1470   1471 1
  1433   1471   1472 1
  1434   1472   1473 1
  1435   1472   1474 1
  1436   1473   1477 1
  1437   1474   1475 1
  1438   1474   1476 1
  1439   1476   1477 1
  1440   1477   1478 1
  1441   1478   1479 ar
  1442   1478   1487 ar
  1443   1479   1480 ar
  1444   1480   1481 ar
  1445   1481   1482 ar
  1446   1481   1487 ar
  1447   1482   1483 1
  1448   1482   1484 ar
  1449   1484   1485 ar
  1450   1485   1486 ar
  1451   1486   1487 ar
  1452   1499   1500 1
  1453   1499   1501 1
  1454   1499   1502 1
  1455   1502   1503 1
  1456   1503   1504 1
  1457   1504   1505 1
  1458   1504   1506 1
  1459   1505   1509 1
  1460   1506   1507 1
  1461   1506   1508 1
  1462   1508   1509 1
  1463   1509   1510 1
  1464   1510   1511 am
  1465   1510   1518 1
  1466   1511   1512 2
  1467   1511   1513 am
  1468   1513   1514 am
  1469   1514   1515 2
  1470   1514   1516 1
  1471   1516   1517 1
  1472   1516   1518 2
  1473   1531   1532 1
  1474   1531   1533 1
  1475   1531   1534 1
  1476   1534   1535 1
  1477   1535   1536 1
  1478   1536   1537 1
  1479   1536   1538 1
  1480   1537   1541 1
  1481   1538   1539 1
  1482   1538   1540 1
  1483   1540   1541 1
  1484   1541   1542 1
  1485   1542   1543 am
  1486   1542   1550 1
  1487   1543   1544 2
  1488   1543   1545 am
  1489   1545   1546 am
  1490   1546   1547 2
  1491   1546   1548 1
  1492   1548   1549 1
  1493   1548   1550 2
  1494   1563   1564 1
  1495   1563   1565 1
  1496   1563   1566 1
  1497   1566   1567 1
  1498   1567   1568 1
  1499   1568   1569 1
  1500   1568   1570 1
  1501   1569   1573 1
  1502   1570   1571 1
  1503   1570   1572 1
  1504   1572   1573 1
  1505   1573   1574 1
  1506   1574   1575 am
  1507   1574   1581 1
  1508   1575   1576 2
  1509   1575   1577 1
  1510   1577   1578 2
  1511   1578   1579 2
  1512   1578   1580 2
  1513   1580   1581 2
  1514   1593   1594 1
  1515   1593   1595 1
  1516   1593   1596 1
  1517   1596   1597 1
  1518   1597   1598 1
  1519   1598   1599 1
  1520   1598   1600 1
  1521   1599   1603 1
  1522   1600   1601 1
  1523   1600   1602 1
  1524   1602   1603 1
  1525   1603   1604 1
  1526   1604   1605 ar
  1527   1604   1613 ar
  1528   1605   1606 ar
  1529   1606   1607 ar
  1530   1607   1608 ar
  1531   1607   1613 ar
  1532   1608   1609 1
  1533   1608   1610 ar
  1534   1610   1611 ar
  1535   1611   1612 ar
  1536   1612   1613 ar
  1537   1625   1626 1
  1538   1625   1627 1
  1539   1625   1628 1
  1540   1628   1629 1
  1541   1629   1630 1
  1542   1630   1631 1
  1543   1630   1632 1
  1544   1631   1635 1
  1545   1632   1633 1
  1546   1632   1634 1
  1547   1634   1635 1
  1548   1635   1636 1
  1549   1636   1637 am
  1550   1636   1643 1
  1551   1637   1638 2
  1552   1637   1639 1
  1553   1639   1640 2
  1554   1640   1641 2
  1555   1640   1642 2
  1556   1642   1643 2
  1557   1041   1023 1
  1558   1042   1023 1
  1559   1043   1024 1
  1560   1044   1026 1
  1561   1045   1028 1
  1562   1046   1028 1
  1563   1047   1029 1
  1564   1048   1031 1
  1565   1049   1036 1
  1566   1072   1056 1
  1567   1073   1056 1
  1568   1074   1057 1
  1569   1075   1059 1
  1570   1076   1061 1
  1571   1077   1061 1
  1572   1078   1062 1
  1573   1079   1066 1
  1574   1080   1071 1
  1575   1106   1088 1
  1576   1107   1088 1
  1577   1108   1089 1
  1578   1109   1091 1
  1579   1110   1093 1
  1580   1111   1093 1
  1581   1112   1094 1
  1582   1113   1096 1
  1583   1114   1101 1
  1584   1138   1121 1
  1585   1139   1121 1
  1586   1140   1122 1
  1587   1141   1124 1
  1588   1142   1126 1
  1589   1143   1126 1
  1590   1144   1127 1
  1591   1145   1129 1
  1592   1146   1135 1
  1593   1170   1153 1
  1594   1171   1153 1
  1595   1172   1154 1
  1596   1173   1156 1
  1597   1174   1158 1
  1598   1175   1158 1
  1599   1176   1159 1
  1600   1177   1161 1
  1601   1178   1167 1
  1602   1201   1185 1
  1603   1202   1185 1
  1604   1203   1186 1
  1605   1204   1188 1
  1606   1205   1190 1
  1607   1206   1190 1
  1608   1207   1191 1
  1609   1208   1195 1
  1610   1209   1200 1
  1611   1233   1217 1
  1612   1234   1217 1
  1613   1235   1218 1
  1614   1236   1220 1
  1615   1237   1222 1
  1616   1238   1222 1
  1617   1239   1223 1
  1618   1240   1227 1
  1619   1241   1232 1
  1620   1264   1249 1
  1621   1265   1249 1
  1622   1266   1250 1
  1623   1267   1252 1
  1624   1268   1254 1
  1625   1269   1254 1
  1626   1270   1255 1
  1627   1271   1262 1
  1628   1272   1263 1
  1629   1296   1279 1
  1630   1297   1279 1
  1631   1298   1280 1
  1632   1299   1282 1
  1633   1300   1284 1
  1634   1301   1284 1
  1635   1302   1285 1
  1636   1303   1287 1
  1637   1304   1293 1
  1638   1326   1311 1
  1639   1327   1311 1
  1640   1328   1312 1
  1641   1329   1314 1
  1642   1330   1316 1
  1643   1331   1316 1
  1644   1332   1317 1
  1645   1333   1324 1
  1646   1334   1325 1
  1647   1359   1341 1
  1648   1360   1341 1
  1649   1361   1342 1
  1650   1362   1344 1
  1651   1363   1346 1
  1652   1364   1346 1
  1653   1365   1347 1
  1654   1366   1349 1
  1655   1367   1354 1
  1656   1390   1374 1
  1657   1391   1374 1
  1658   1392   1375 1
  1659   1393   1377 1
  1660   1394   1379 1
  1661   1395   1379 1
  1662   1396   1380 1
  1663   1397   1384 1
  1664   1398   1389 1
  1665   1424   1406 1
  1666   1425   1406 1
  1667   1426   1407 1
  1668   1427   1409 1
  1669   1428   1411 1
  1670   1429   1411 1
  1671   1430   1412 1
  1672   1431   1414 1
  1673   1432   1419 1
  1674   1456   1439 1
  1675   1457   1439 1
  1676   1458   1440 1
  1677   1459   1442 1
  1678   1460   1444 1
  1679   1461   1444 1
  1680   1462   1445 1
  1681   1463   1447 1
  1682   1464   1453 1
  1683   1488   1471 1
  1684   1489   1471 1
  1685   1490   1472 1
  1686   1491   1474 1
  1687   1492   1476 1
  1688   1493   1476 1
  1689   1494   1477 1
  1690   1495   1479 1
  1691   1496   1485 1
  1692   1519   1503 1
  1693   1520   1503 1
  1694   1521   1504 1
  1695   1522   1506 1
  1696   1523   1508 1
  1697   1524   1508 1
  1698   1525   1509 1
  1699   1526   1513 1
  1700   1527   1518 1
  1701   1551   1535 1
  1702   1552   1535 1
  1703   1553   1536 1
  1704   1554   1538 1
  1705   1555   1540 1
  1706   1556   1540 1
  1707   1557   1541 1
  1708   1558   1545 1
  1709   1559   1550 1
  1710   1582   1567 1
  1711   1583   1567 1
  1712   1584   1568 1
  1713   1585   1570 1
  1714   1586   1572 1
  1715   1587   1572 1
  1716   1588   1573 1
  1717   1589   1580 1
  1718   1590   1581 1
  1719   1614   1597 1
  1720   1615   1597 1
  1721   1616   1598 1
  1722   1617   1600 1
  1723   1618   1602 1
  1724   1619   1602 1
  1725   1620   1603 1
  1726   1621   1605 1
  1727   1622   1611 1
  1728   1644   1629 1
  1729   1645   1629 1
  1730   1646   1630 1
  1731   1647   1632 1
  1732   1648   1634 1
  1733   1649   1634 1
  1734   1650   1635 1
  1735   1651   1642 1
  1736   1652   1643 1
  1737   1050   1038 1
  1738   1051   1038 1
  1739   1115   1103 1
  1740   1116   1103 1
  1741   1273   1261 1
  1742   1274   1261 1
  1743   1335   1323 1
  1744   1336   1323 1
  1745   1368   1356 1
  1746   1369   1356 1
  1747   1433   1421 1
  1748   1434   1421 1
  1749   1591   1579 1
  1750   1592   1579 1
  1751   1653   1641 1
  1752   1654   1641 1
  1753   1147   1133 1
  1754   1148   1133 1
  1755   1179   1165 1
  1756   1180   1165 1
  1757   1305   1291 1
  1758   1306   1291 1
  1759   1465   1451 1
  1760   1466   1451 1
  1761   1497   1483 1
  1762   1498   1483 1
  1763   1623   1609 1
  1764   1624   1609 1
  1765   1081   1070 1
  1766   1082   1070 1
  1767   1083   1070 1
  1768   1210   1199 1
  1769   1211   1199 1
  1770   1212   1199 1
  1771   1242   1231 1
  1772   1243   1231 1
  1773   1244   1231 1
  1774   1399   1388 1
  1775   1400   1388 1
  1776   1401   1388 1
  1777   1528   1517 1
  1778   1529   1517 1
  1779   1530   1517 1
  1780   1560   1549 1
  1781   1561   1549 1
  1782   1562   1549 1
  1783   1315   1655 1
  1784   1337   2079 1
  1785   1663   1688 1
  1786   1696   1720 1
  1787   1728   1753 1
  1788   1761   1785 1
  1789   1793   1817 1
  1790   1825   1849 1
  1791   1889   1913 1
  1792   1921   1945 1
  1793   1953   1977 1
  1794   1985   2009 1
  1795   2017   2039 1
  1796   2047   2071 1
  1797   1655   1656 1
  1798   1655   1657 1
  1799   1655   1658 1
  1800   1658   1659 1
  1801   1659   1660 1
  1802   1660   1661 1
  1803   1660   1662 1
  1804   1661   1665 1
  1805   1662   1663 1
  1806   1662   1664 1
  1807   1664   1665 1
  1808   1665   1666 1
  1809   1666   1667 ar
  1810   1666   1676 ar
  1811   1667   1668 ar
  1812   1668   1669 ar
  1813   1669   1670 1
  1814   1669   1676 ar
  1815   1670   1671 2
  1816   1670   1672 am
  1817   1672   1673 1
  1818   1673   1674 2
  1819   1673   1675 2
  1820   1675   1676 1
  1821   1688   1689 1
  1822   1688   1690 1
  1823   1688   1691 1
  1824   1691   1692 1
  1825   1692   1693 1
  1826   1693   1694 1
  1827   1693   1695 1
  1828   1694   1698 1
  1829   1695   1696 1
  1830   1695   1697 1
  1831   1697   1698 1
  1832   1698   1699 1
  1833   1699   1700 am
  1834   1699   1707 1
  1835   1700   1701 2
  1836   1700   1702 am
  1837   1702   1703 am
  1838   1703   1704 2
  1839   1703   1705 1
  1840   1705   1706 1
  1841   1705   1707 2
  1842   1720   1721 1
  1843   1720   1722 1
  1844   1720   1723 1
  1845   1723   1724 1
  1846   1724   1725 1
  1847   1725   1726 1
  1848   1725   1727 1
  1849   1726   1730 1
  1850   1727   1728 1
  1851   1727   1729 1
  1852   1729   1730 1
  1853   1730   1731 1
  1854   1731   1732 ar
  1855   1731   1741 ar
  1856   1732   1733 ar
  1857   1733   1734 ar
  1858   1734   1735 1
  1859   1734   1741 ar
  1860   1735   1736 2
  1861   1735   1737 am
  1862   1737   1738 1
  1863   1738   1739 2
  1864   1738   1740 2
  1865   1740   1741 1
  1866   1753   1754 1
  1867   1753   1755 1
  1868   1753   1756 1
  1869   1756   1757 1
  1870   1757   1758 1
  1871   1758   1759 1
  1872   1758   1760 1
  1873   1759   1763 1
  1874   1760   1761 1
  1875   1760   1762 1
  1876   1762   1763 1
  1877   1763   1764 1
  1878   1764   1765 ar
  1879   1764   1773 ar
  1880   1765   1766 ar
  1881   1766   1767 ar
  1882   1767   1768 ar
  1883   1767   1773 ar
  1884   1768   1769 1
  1885   1768   1770 ar
  1886   1770   1771 ar
  1887   1771   1772 ar
  1888   1772   1773 ar
  1889   1785   1786 1
  1890   1785   1787 1
  1891   1785   1788 1
  1892   1788   1789 1
  1893   1789   1790 1
  1894   1790   1791 1
  1895   1790   1792 1
  1896   1791   1795 1
  1897   1792   1793 1
  1898   1792   1794 1
  1899   1794   1795 1
  1900   1795   1796 1
  1901   1796   1797 ar
  1902   1796   1805 ar
  1903   1797   1798 ar
  1904   1798   1799 ar
  1905   1799   1800 ar
  1906   1799   1805 ar
  1907   1800   1801 1
  1908   1800   1802 ar
  1909   1802   1803 ar
  1910   1803   1804 ar
  1911   1804   1805 ar
  1912   1817   1818 1
  1913   1817   1819 1
  1914   1817   1820 1
  1915   1820   1821 1
  1916   1821   1822 1
  1917   1822   1823 1
  1918   1822   1824 1
  1919   1823   1827 1
  1920   1824   1825 1
  1921   1824   1826 1
  1922   1826   1827 1
  1923   1827   1828 1
  1924   1828   1829 am
  1925   1828   1836 1
  1926   1829   1830 2
  1927   1829   1831 am
  1928   1831   1832 am
  1929   1832   1833 2
  1930   1832   1834 1
  1931   1834   1835 1
  1932   1834   1836 2
  1933   1849   1850 1
  1934   1849   1851 1
  1935   1849   1852 1
  1936   1852   1853 1
  1937   1853   1854 1
  1938   1854   1855 1
  1939   1854   1856 1
  1940   1855   1859 1
  1941   1856   1857 1
  1942   1856   1858 1
  1943   1858   1859 1
  1944   1859   1860 1
  1945   1860   1861 am
  1946   1860   1868 1
  1947   1861   1862 2
  1948   1861   1863 am
  1949   1863   1864 am
  1950   1864   1865 2
  1951   1864   1866 1
  1952   1866   1867 1
  1953   1866   1868 2
  1954   1881   1882 1
  1955   1881   1883 1
  1956   1881   1884 1
  1957   1884   1885 1
  1958   1885   1886 1
  1959   1886   1887 1
  1960   1886   1888 1
  1961   1887   1891 1
  1962   1888   1889 1
  1963   1888   1890 1
  1964   1890   1891 1
  1965   1891   1892 1
  1966   1892   1893 ar
  1967   1892   1901 ar
  1968   1893   1894 ar
  1969   1894   1895 ar
  1970   1895   1896 ar
  1971   1895   1901 ar
  1972   1896   1897 1
  1973   1896   1898 ar
  1974   1898   1899 ar
  1975   1899   1900 ar
  1976   1900   1901 ar
  1977   1913   1914 1
  1978   1913   1915 1
  1979   1913   1916 1
  1980   1916   1917 1
  1981   1917   1918 1
  1982   1918   1919 1
  1983   1918   1920 1
  1984   1919   1923 1
  1985   1920   1921 1
  1986   1920   1922 1
  1987   1922   1923 1
  1988   1923   1924 1
  1989   1924   1925 ar
  1990   1924   1933 ar
  1991   1925   1926 ar
  1992   1926   1927 ar
  1993   1927   1928 ar
  1994   1927   1933 ar
  1995   1928   1929 1
  1996   1928   1930 ar
  1997   1930   1931 ar
  1998   1931   1932 ar
  1999   1932   1933 ar
  2000   1945   1946 1
  2001   1945   1947 1
  2002   1945   1948 1
  2003   1948   1949 1
  2004   1949   1950 1
  2005   1950   1951 1
  2006   1950   1952 1
  2007   1951   1955 1
  2008   1952   1953 1
  2009   1952   1954 1
  2010   1954   1955 1
  2011   1955   1956 1
  2012   1956   1957 am
  2013   1956   1964 1
  2014   1957   1958 2
  2015   1957   1959 am
  2016   1959   1960 am
  2017   1960   1961 2
  2018   1960   1962 1
  2019   1962   1963 1
  2020   1962   1964 2
  2021   1977   1978 1
  2022   1977   1979 1
  2023   1977   1980 1
  2024   1980   1981 1
  2025   1981   1982 1
  2026   1982   1983 1
  2027   1982   1984 1
  2028   1983   1987 1
  2029   1984   1985 1
  2030   1984   1986 1
  2031   1986   1987 1
  2032   1987   1988 1
  2033   1988   1989 am
  2034   1988   1996 1
  2035   1989   1990 2
  2036   1989   1991 am
  2037   1991   1992 am
  2038   1992   1993 2
  2039   1992   1994 1
  2040   1994   1995 1
  2041   1994   1996 2
  2042   2009   2010 1
  2043   2009   2011 1
  2044   2009   2012 1
  2045   2012   2013 1
  2046   2013   2014 1
  2047   2014   2015 1
  2048   2014   2016 1
  2049   2015   2019 1
  2050   2016   2017 1
  2051   2016   2018 1
  2052   2018   2019 1
  2053   2019   2020 1
  2054   2020   2021 am
  2055   2020   2027 1
  2056   2021   2022 2
  2057   2021   2023 1
  2058   2023   2024 2
  2059   2024   2025 2
  2060   2024   2026 2
  2061   2026   2027 2
  2062   2039   2040 1
  2063   2039   2041 1
  2064   2039   2042 1
  2065   2042   2043 1
  2066   2043   2044 1
  2067   2044   2045 1
  2068   2044   2046 1
  2069   2045   2049 1
  2070   2046   2047 1
  2071   2046   2048 1
  2072   2048   2049 1
  2073   2049   2050 1
  2074   2050   2051 ar
  2075   2050   2059 ar
  2076   2051   2052 ar
  2077   2052   2053 ar
  2078   2053   2054 ar
  2079   2053   2059 ar
  2080   2054   2055 1
  2081   2054   2056 ar
  2082   2056   2057 ar
  2083   2057   2058 ar
  2084   2058   2059 ar
  2085   2071   2072 1
  2086   2071   2073 1
  2087   2071   2074 1
  2088   2074   2075 1
  2089   2075   2076 1
  2090   2076   2077 1
  2091   2076   2078 1
  2092   2077   2081 1
  2093   2078   2079 1
  2094   2078   2080 1
  2095   2080   2081 1
  2096   2081   2082 1
  2097   2082   2083 am
  2098   2082   2089 1
  2099   2083   2084 2
  2100   2083   2085 1
  2101   2085   2086 2
  2102   2086   2087 2
  2103   2086   2088 2
  2104   2088   2089 2
  2105   1677   1659 1
  2106   1678   1659 1
  2107   1679   1660 1
  2108   1680   1662 1
  2109   1681   1664 1
  2110   1682   1664 1
  2111   1683   1665 1
  2112   1684   1667 1
  2113   1685   1672 1
  2114   1708   1692 1
  2115   1709   1692 1
  2116   1710   1693 1
  2117   1711   1695 1
  2118   1712   1697 1
  2119   1713   1697 1
  2120   1714   1698 1
  2121   1715   1702 1
  2122   1716   1707 1
  2123   1742   1724 1
  2124   1743   1724 1
  2125   1744   1725 1
  2126   1745   1727 1
  2127   1746   1729 1
  2128   1747   1729 1
  2129   1748   1730 1
  2130   1749   1732 1
  2131   1750   1737 1
  2132   1774   1757 1
  2133   1775   1757 1
  2134   1776   1758 1
  2135   1777   1760 1
  2136   1778   1762 1
  2137   1779   1762 1
  2138   1780   1763 1
  2139   1781   1765 1
  2140   1782   1771 1
  2141   1806   1789 1
  2142   1807   1789 1
  2143   1808   1790 1
  2144   1809   1792 1
  2145   1810   1794 1
  2146   1811   1794 1
  2147   1812   1795 1
  2148   1813   1797 1
  2149   1814   1803 1
  2150   1837   1821 1
  2151   1838   1821 1
  2152   1839   1822 1
  2153   1840   1824 1
  2154   1841   1826 1
  2155   1842   1826 1
  2156   1843   1827 1
  2157   1844   1831 1
  2158   1845   1836 1
  2159   1869   1853 1
  2160   1870   1853 1
  2161   1871   1854 1
  2162   1872   1856 1
  2163   1873   1858 1
  2164   1874   1858 1
  2165   1875   1859 1
  2166   1876   1863 1
  2167   1877   1868 1
  2168   1902   1885 1
  2169   1903   1885 1
  2170   1904   1886 1
  2171   1905   1888 1
  2172   1906   1890 1
  2173   1907   1890 1
  2174   1908   1891 1
  2175   1909   1893 1
  2176   1910   1899 1
  2177   1934   1917 1
  2178   1935   1917 1
  2179   1936   1918 1
  2180   1937   1920 1
  2181   1938   1922 1
  2182   1939   1922 1
  2183   1940   1923 1
  2184   1941   1925 1
  2185   1942   1931 1
  2186   1965   1949 1
  2187   1966   1949 1
  2188   1967   1950 1
  2189   1968   1952 1
  2190   1969   1954 1
  2191   1970   1954 1
  2192   1971   1955 1
  2193   1972   1959 1
  2194   1973   1964 1
  2195   1997   1981 1
  2196   1998   1981 1
  2197   1999   1982 1
  2198   2000   1984 1
  2199   2001   1986 1
  2200   2002   1986 1
  2201   2003   1987 1
  2202   2004   1991 1
  2203   2005   1996 1
  2204   2028   2013 1
  2205   2029   2013 1
  2206   2030   2014 1
  2207   2031   2016 1
  2208   2032   2018 1
  2209   2033   2018 1
  2210   2034   2019 1
  2211   2035   2026 1
  2212   2036   2027 1
  2213   2060   2043 1
  2214   2061   2043 1
  2215   2062   2044 1
  2216   2063   2046 1
  2217   2064   2048 1
  2218   2065   2048 1
  2219   2066   2049 1
  2220   2067   2051 1
  2221   2068   2057 1
  2222   2090   2075 1
  2223   2091   2075 1
  2224   2092   2076 1
  2225   2093   2078 1
  2226   2094   2080 1
  2227   2095   2080 1
  2228   2096   2081 1
  2229   2097   2088 1
  2230   2098   2089 1
  2231   1686   1674 1
  2232   1687   1674 1
  2233   1751   1739 1
  2234   1752   1739 1
  2235   2037   2025 1
  2236   2038   2025 1
  2237   2099   2087 1
  2238   2100   2087 1
  2239   1783   1769 1
  2240   1784   1769 1
  2241   1815   1801 1
  2242   1816   1801 1
  2243   1911   1897 1
  2244   1912   1897 1
  2245   1943   1929 1
  2246   1944   1929 1
  2247   2069   2055 1
  2248   2070   2055 1
  2249   1717   1706 1
  2250   1718   1706 1
  2251   1719   1706 1
  2252   1846   1835 1
  2253   1847   1835 1
  2254   1848   1835 1
  2255   1878   1867 1
  2256   1879   1867 1
  2257   1880   1867 1
  2258   1974   1963 1
  2259   1975   1963 1
  2260   1976   1963 1
  2261   2006   1995 1
  2262   2007   1995 1
  2263   2008   1995 1
@<TRIPOS>MOLECULE
dna-seg-23-bp33
2098 2261 1 0 0
BIOPOLYMER
NO_CHARGES


@<TRIPOS>ATOM
      1 P          1.3944     9.0180  2510.2463 P.3      768 DC      0.0000
      2 OP1        0.6989     9.8402  2509.1783 O.co2    768 DC      0.0000
      3 OP2        2.4746     9.7011  2510.9812 O.co2    768 DC      0.0000
      4 O5'        0.2191     8.2457  2511.0723 O.3      768 DC      0.0000
      5 C5'       -0.4190     7.3953  2510.0500 C.3      768 DC      0.0000
      6 C4'       -1.4769     6.5876  2510.7465 C.3      768 DC      0.0000
      7 O4'       -1.0753     5.2758  2510.9934 O.3      768 DC      0.0000
      8 C3'       -2.0108     7.1970  2512.0380 C.3      768 DC      0.0000
      9 O3'       -3.4202     7.3643  2511.9583 O.3      768 DC      0.0000
     10 C2'       -1.4541     6.2317  2513.0867 C.3      768 DC      0.0000
     11 C1'       -1.3614     4.9320  2512.3903 C.3      768 DC      0.0000
     12 N1        -0.2177     4.0766  2512.7224 N.am     768 DC      0.0000
     13 C2        -0.5123     2.7392  2512.9782 C.2      768 DC      0.0000
     14 O2        -1.6763     2.3269  2512.9827 O.2      768 DC      0.0000
     15 N3         0.5400     1.9009  2513.2521 N.2      768 DC      0.0000
     16 C4         1.8284     2.3485  2513.2422 C.2      768 DC      0.0000
     17 N4         2.7770     1.4606  2513.5190 N.pl3    768 DC      0.0000
     18 C5         2.1131     3.7035  2512.9641 C.2      768 DC      0.0000
     19 C6         1.0684     4.5147  2512.6993 C.2      768 DC      0.0000
     20 H5'       -0.8711     8.0159  2509.2764 H        768 DC      0.0000
     21 H5''       0.3220     6.7307  2509.6058 H        768 DC      0.0000
     22 H4'       -2.3219     6.5282  2510.0606 H        768 DC      0.0000
     23 H3'       -1.5496     8.1741  2512.1813 H        768 DC      0.0000
     24 H2'       -0.4704     6.5574  2513.4247 H        768 DC      0.0000
     25 H2''      -2.1381     6.1583  2513.9323 H        768 DC      0.0000
     26 H1'       -2.2974     4.3793  2512.4713 H        768 DC      0.0000
     27 H5         3.1270     4.0756  2512.9636 H        768 DC      0.0000
     28 H6         1.2611     5.5502  2512.4603 H        768 DC      0.0000
     29 H41        2.5290     0.5021  2513.7182 H        768 DC      0.0000
     30 H42        3.7463     1.7443  2513.5303 H        768 DC      0.0000
     31 P         -4.3311     8.3116  2512.9103 P.3      769 DA      0.0000
     32 OP1       -5.5708     8.6766  2512.1166 O.co2    769 DA      0.0000
     33 OP2       -3.5329     9.5055  2513.2559 O.co2    769 DA      0.0000
     34 O5'       -4.6735     7.3583  2514.2074 O.3      769 DA      0.0000
     35 C5'       -5.2479     6.0484  2513.9121 C.3      769 DA      0.0000
     36 C4'       -5.4133     5.2561  2515.1674 C.3      769 DA      0.0000
     37 O4'       -4.3932     4.2825  2515.4095 O.3      769 DA      0.0000
     38 C3'       -5.4018     6.0693  2516.4726 C.3      769 DA      0.0000
     39 O3'       -6.0090     5.2859  2517.5026 O.3      769 DA      0.0000
     40 C2'       -3.8787     6.1749  2516.6872 C.3      769 DA      0.0000
     41 C1'       -3.5729     4.6845  2516.5040 C.3      769 DA      0.0000
     42 N9        -2.1348     4.4992  2516.4096 N.ar     769 DA      0.0000
     43 C8        -1.1247     5.4135  2516.2938 C.ar     769 DA      0.0000
     44 N7         0.0926     4.9008  2516.2752 N.ar     769 DA      0.0000
     45 C5        -0.1374     3.5365  2516.3828 C.ar     769 DA      0.0000
     46 C6         0.7413     2.4257  2516.4173 C.ar     769 DA      0.0000
     47 N6         2.0569     2.5084  2516.3320 N.pl3    769 DA      0.0000
     48 N1         0.1555     1.1994  2516.5498 N.ar     769 DA      0.0000
     49 C2        -1.2053     1.0673  2516.6300 C.ar     769 DA      0.0000
     50 N3        -2.0925     2.0589  2516.6002 N.ar     769 DA      0.0000
     51 C4        -1.4933     3.2687  2516.4772 C.ar     769 DA      0.0000
     52 H5'       -6.2217     6.1815  2513.4410 H        769 DA      0.0000
     53 H5''      -4.5883     5.5107  2513.2308 H        769 DA      0.0000
     54 H4'       -6.3674     4.7325  2515.1085 H        769 DA      0.0000
     55 H3'       -5.8744     7.0449  2516.3590 H        769 DA      0.0000
     56 H2'       -3.3922     6.7976  2515.9365 H        769 DA      0.0000
     57 H2''      -3.6408     6.5092  2517.6971 H        769 DA      0.0000
     58 H1'       -3.9206     4.1595  2517.3936 H        769 DA      0.0000
     59 H8        -1.3083     6.4754  2516.2228 H        769 DA      0.0000
     60 H2        -1.5948     0.0646  2516.7265 H        769 DA      0.0000
     61 H61        2.8153     1.8661  2516.5121 H        769 DA      0.0000
     62 H62        2.3746     3.4140  2516.0173 H        769 DA      0.0000
     63 P         -7.5996     5.1816  2517.6430 P.3      770 DC      0.0000
     64 OP1       -8.3254     5.5610  2516.3979 O.co2    770 DC      0.0000
     65 OP2       -7.8789     6.1143  2518.7859 O.co2    770 DC      0.0000
     66 O5'       -7.8401     3.6400  2517.9262 O.3      770 DC      0.0000
     67 C5'       -7.8781     2.6672  2516.8385 C.3      770 DC      0.0000
     68 C4'       -7.3843     1.3988  2517.5434 C.3      770 DC      0.0000
     69 O4'       -6.0244     1.5937  2517.8554 O.3      770 DC      0.0000
     70 C3'       -8.1091     1.1007  2518.8533 C.3      770 DC      0.0000
     71 O3'       -8.6154    -0.2516  2518.9212 O.3      770 DC      0.0000
     72 C2'       -7.0646     1.4133  2519.9355 C.3      770 DC      0.0000
     73 C1'       -5.7956     1.0852  2519.2594 C.3      770 DC      0.0000
     74 N1        -4.5476     1.7572  2519.6122 N.am     770 DC      0.0000
     75 C2        -3.4122     0.9497  2519.5853 C.2      770 DC      0.0000
     76 O2        -3.4629    -0.2563  2519.3784 O.2      770 DC      0.0000
     77 N3        -2.2158     1.5451  2519.8384 N.2      770 DC      0.0000
     78 C4        -2.0996     2.8748  2520.0718 C.2      770 DC      0.0000
     79 N4        -0.8740     3.3415  2520.3027 N.pl3    770 DC      0.0000
     80 C5        -3.2643     3.6908  2520.0783 C.2      770 DC      0.0000
     81 C6        -4.4413     3.0963  2519.8289 C.2      770 DC      0.0000
     82 H5'       -8.8899     2.5402  2516.4536 H        770 DC      0.0000
     83 H5''      -7.1948     2.9552  2516.0395 H        770 DC      0.0000
     84 H4'       -7.4843     0.5469  2516.8708 H        770 DC      0.0000
     85 H3'       -8.9434     1.7941  2518.9592 H        770 DC      0.0000
     86 H2'       -7.0976     2.4643  2520.2225 H        770 DC      0.0000
     87 H2''      -7.2115     0.7737  2520.8058 H        770 DC      0.0000
     88 H1'       -5.6476     0.0054  2519.2461 H        770 DC      0.0000
     89 H5        -3.2037     4.7506  2520.2768 H        770 DC      0.0000
     90 H6        -5.3351     3.7017  2519.7992 H        770 DC      0.0000
     91 H41       -0.0838     2.7126  2520.2917 H        770 DC      0.0000
     92 H42       -0.7347     4.3244  2520.4889 H        770 DC      0.0000
     93 P          8.4151    -1.1100  2521.8808 P.3      770 DG      0.0000
     94 OP1        9.8945    -1.2376  2522.0595 O.co2    770 DG      0.0000
     95 OP2        8.0293    -0.1131  2520.7959 O.co2    770 DG      0.0000
     96 O5'        7.7595    -2.6055  2521.6735 O.3      770 DG      0.0000
     97 C5'        6.9935    -3.2075  2522.7693 C.3      770 DG      0.0000
     98 C4'        5.8209    -3.9520  2522.1350 C.3      770 DG      0.0000
     99 O4'        4.6777    -3.1468  2522.0392 O.3      770 DG      0.0000
    100 C3'        6.0936    -4.4790  2520.7287 C.3      770 DG      0.0000
    101 O3'        5.5343    -5.7858  2520.4617 O.3      770 DG      0.0000
    102 C2'        5.4654    -3.4016  2519.8264 C.3      770 DG      0.0000
    103 C1'        4.2483    -3.0153  2520.6502 C.3      770 DG      0.0000
    104 N9         3.8420    -1.6262  2520.3769 N.ar     770 DG      0.0000
    105 C8         4.6495    -0.5248  2520.2202 C.ar     770 DG      0.0000
    106 N7         3.9964     0.5856  2520.0018 N.ar     770 DG      0.0000
    107 C5         2.6631     0.1938  2520.0266 C.ar     770 DG      0.0000
    108 C6         1.4638     0.9387  2519.8702 C.2      770 DG      0.0000
    109 O6         1.3708     2.1587  2519.6733 O.2      770 DG      0.0000
    110 N1         0.3171     0.1884  2519.9571 N.am     770 DG      0.0000
    111 C2         0.3324    -1.1490  2520.1778 C.2      770 DG      0.0000
    112 N2        -0.8565    -1.7423  2520.2411 N.pl3    770 DG      0.0000
    113 N3         1.4315    -1.8966  2520.3355 N.2      770 DG      0.0000
    114 C4         2.5563    -1.1598  2520.2522 C.ar     770 DG      0.0000
    115 H5'        7.6210    -3.9027  2523.3271 H        770 DG      0.0000
    116 H5''       6.6219    -2.4279  2523.4342 H        770 DG      0.0000
    117 H4'        5.5797    -4.8032  2522.7717 H        770 DG      0.0000
    118 H3'        7.1699    -4.5074  2520.5582 H        770 DG      0.0000
    119 H2'        6.1380    -2.5558  2519.6837 H        770 DG      0.0000
    120 H2''       5.1662    -3.8250  2518.8676 H        770 DG      0.0000
    121 H1'        3.4226    -3.6967  2520.4450 H        770 DG      0.0000
    122 H8         5.7271    -0.5729  2520.2730 H        770 DG      0.0000
    123 H1        -0.5741     0.6519  2519.8523 H        770 DG      0.0000
    124 H21       -1.6994    -1.1978  2520.1260 H        770 DG      0.0000
    125 H22       -0.9163    -2.7372  2520.4043 H        770 DG      0.0000
    126 P          5.1242    -6.0666  2518.9382 P.3      769 DT      0.0000
    127 OP1        5.1996    -7.5180  2518.5473 O.co2    769 DT      0.0000
    128 OP2        6.1591    -5.2670  2518.2377 O.co2    769 DT      0.0000
    129 O5'        3.6169    -5.5395  2518.8073 O.3      769 DT      0.0000
    130 C5'        2.5538    -6.5091  2519.0749 C.3      769 DT      0.0000
    131 C4'        1.3151    -6.0820  2518.3179 C.3      769 DT      0.0000
    132 O4'        1.1422    -4.6764  2518.2906 O.3      769 DT      0.0000
    133 C3'        1.3229    -6.5256  2516.8632 C.3      769 DT      0.0000
    134 O3'        0.0316    -6.9413  2516.3681 O.3      769 DT      0.0000
    135 C2'        1.8355    -5.2997  2516.1403 C.3      769 DT      0.0000
    136 C1'        1.0941    -4.2253  2516.9184 C.3      769 DT      0.0000
    137 N1         1.8676    -2.9828  2516.7671 N.am     769 DT      0.0000
    138 C2         1.1504    -1.7955  2516.8739 C.2      769 DT      0.0000
    139 O2        -0.0610    -1.8160  2517.0636 O.2      769 DT      0.0000
    140 N3         1.8529    -0.6291  2516.7537 N.am     769 DT      0.0000
    141 C4         3.1980    -0.6168  2516.5362 C.2      769 DT      0.0000
    142 O4         3.7665     0.5208  2516.4386 O.2      769 DT      0.0000
    143 C5         3.9051    -1.8485  2516.4298 C.2      769 DT      0.0000
    144 C7         5.3893    -1.8467  2516.2008 C.3      769 DT      0.0000
    145 C6         3.2139    -2.9847  2516.5515 C.2      769 DT      0.0000
    146 H5'        2.8659    -7.4987  2518.7412 H        769 DT      0.0000
    147 H5''       2.3402    -6.5332  2520.1435 H        769 DT      0.0000
    148 H4'        0.4465    -6.5241  2518.8058 H        769 DT      0.0000
    149 H3'        2.0356    -7.3410  2516.7392 H        769 DT      0.0000
    150 H2'        2.9167    -5.1956  2516.2319 H        769 DT      0.0000
    151 H2''       1.5301    -5.3062  2515.0939 H        769 DT      0.0000
    152 H1'        0.0688    -4.1078  2516.5678 H        769 DT      0.0000
    153 H3         1.3604     0.2495  2516.8284 H        769 DT      0.0000
    154 H6         3.7341    -3.9282  2516.4774 H        769 DT      0.0000
    155 H71        5.7457    -0.8189  2516.1321 H        769 DT      0.0000
    156 H72        5.8855    -2.3483  2517.0317 H        769 DT      0.0000
    157 H73        5.6145    -2.3722  2515.2727 H        769 DT      0.0000
    158 P          0.2504    -8.3908  2515.5897 P.3      768 DG      0.0000
    159 OP1       -0.0053    -9.5772  2516.4609 O.co2    768 DG      0.0000
    160 OP2        1.6667    -8.2098  2515.1841 O.co2    768 DG      0.0000
    161 O5'       -0.9250    -8.3208  2514.5089 O.3      768 DG      0.0000
    162 C5'       -2.2823    -8.6061  2514.9323 C.3      768 DG      0.0000
    163 C4'       -3.0924    -7.3960  2514.4846 C.3      768 DG      0.0000
    164 O4'       -2.3678    -6.2128  2514.7553 O.3      768 DG      0.0000
    165 C3'       -3.4439    -7.3880  2512.9969 C.3      768 DG      0.0000
    166 O3'       -4.8410    -7.2854  2512.7884 O.3      768 DG      0.0000
    167 C2'       -2.6117    -6.2565  2512.4202 C.3      768 DG      0.0000
    168 C1'       -2.4277    -5.3396  2513.6063 C.3      768 DG      0.0000
    169 N9        -1.1895    -4.5657  2513.4827 N.ar     768 DG      0.0000
    170 C8         0.0866    -5.0268  2513.3239 C.ar     768 DG      0.0000
    171 N7         0.9853    -4.0759  2513.2458 N.ar     768 DG      0.0000
    172 C5         0.2491    -2.9027  2513.3833 C.ar     768 DG      0.0000
    173 C6         0.6369    -1.5369  2513.3928 C.2      768 DG      0.0000
    174 O6         1.7748    -1.0893  2513.2937 O.2      768 DG      0.0000
    175 N1        -0.3949    -0.6542  2513.5418 N.am     768 DG      0.0000
    176 C2        -1.6977    -1.0696  2513.6747 C.2      768 DG      0.0000
    177 N2        -2.6062    -0.1031  2513.8103 N.pl3    768 DG      0.0000
    178 N3        -2.1293    -2.3349  2513.6789 N.2      768 DG      0.0000
    179 C4        -1.0958    -3.1980  2513.5282 C.ar     768 DG      0.0000
    180 H5'       -2.6510    -9.5133  2514.4536 H        768 DG      0.0000
    181 H5''      -2.3252    -8.7081  2516.0167 H        768 DG      0.0000
    182 H4'       -4.0192    -7.3709  2515.0576 H        768 DG      0.0000
    183 H3'       -3.0998    -8.3247  2512.5583 H        768 DG      0.0000
    184 H2'       -1.6524    -6.6219  2512.0538 H        768 DG      0.0000
    185 H2''      -3.1565    -5.7481  2511.6246 H        768 DG      0.0000
    186 H1'       -3.2809    -4.6668  2513.6933 H        768 DG      0.0000
    187 H8         0.3320    -6.0770  2513.2678 H        768 DG      0.0000
    188 H1        -0.1936     0.3354  2513.5546 H        768 DG      0.0000
    189 H21       -2.3176     0.8648  2513.8113 H        768 DG      0.0000
    190 H22       -3.5829    -0.3389  2513.9121 H        768 DG      0.0000
    191 P         -9.7529    -2.2941  2523.9223 P.3      771 DG      0.0000
    192 OP1      -11.1850    -1.9062  2523.9207 O.co2    771 DG      0.0000
    193 OP2       -9.0585    -1.4214  2524.9780 O.co2    771 DG      0.0000
    194 O5'       -9.4275    -3.8414  2524.1007 O.3      771 DG      0.0000
    195 C5'       -9.0504    -4.8115  2523.1007 C.3      771 DG      0.0000
    196 C4'       -7.8265    -5.5512  2523.5995 C.3      771 DG      0.0000
    197 O4'       -6.6274    -4.9364  2523.1803 O.3      771 DG      0.0000
    198 C3'       -7.6964    -5.7806  2525.0917 C.3      771 DG      0.0000
    199 O3'       -7.5018    -7.1864  2525.4037 O.3      771 DG      0.0000
    200 C2'       -6.5316    -4.9052  2525.5136 C.3      771 DG      0.0000
    201 C1'       -5.7015    -4.7909  2524.2579 C.3      771 DG      0.0000
    202 N9        -5.0055    -3.4917  2524.2289 N.ar     771 DG      0.0000
    203 C8        -5.5030    -2.2305  2524.4577 C.ar     771 DG      0.0000
    204 N7        -4.6054    -1.2752  2524.3680 N.ar     771 DG      0.0000
    205 C5        -3.4311    -1.9529  2524.0510 C.ar     771 DG      0.0000
    206 C6        -2.1092    -1.4959  2523.8251 C.2      771 DG      0.0000
    207 O6        -1.6886    -0.3388  2523.8464 O.2      771 DG      0.0000
    208 N1        -1.1951    -2.4739  2523.5436 N.am     771 DG      0.0000
    209 C2        -1.5012    -3.7303  2523.4829 C.2      771 DG      0.0000
    210 N2        -0.4731    -4.4261  2523.1862 N.pl3    771 DG      0.0000
    211 N3        -2.7712    -4.2776  2523.6917 N.2      771 DG      0.0000
    212 C4        -3.6617    -3.3131  2523.9643 C.ar     771 DG      0.0000
    213 H5'       -9.8677    -5.5150  2522.9420 H        771 DG      0.0000
    214 H5''      -8.8165    -4.3031  2522.1653 H        771 DG      0.0000
    215 H4'       -7.8489    -6.5368  2523.1348 H        771 DG      0.0000
    216 H3'       -8.6022    -5.4292  2525.5856 H        771 DG      0.0000
    217 H2'       -6.8796    -3.9255  2525.8406 H        771 DG      0.0000
    218 H2''      -5.9593    -5.3891  2526.3051 H        771 DG      0.0000
    219 H1'       -4.9711    -5.5993  2524.2260 H        771 DG      0.0000
    220 H8        -6.5406    -2.0417  2524.6908 H        771 DG      0.0000
    221 H1        -0.2367    -2.2031  2523.3752 H        771 DG      0.0000
    222 H21        0.4183    -3.9738  2523.0418 H        771 DG      0.0000
    223 H22       -0.5510    -5.4290  2523.0957 H        771 DG      0.0000
    224 P         -7.0554    -7.6890  2526.8322 P.3      772 DT      0.0000
    225 OP1       -7.7323    -8.9342  2527.3439 O.co2    772 DT      0.0000
    226 OP2       -7.5625    -6.5625  2527.7509 O.co2    772 DT      0.0000
    227 O5'       -5.5057    -7.7094  2526.8608 O.3      772 DT      0.0000
    228 C5'       -4.7244    -8.9274  2526.7168 C.3      772 DT      0.0000
    229 C4'       -3.2833    -8.4655  2526.7743 C.3      772 DT      0.0000
    230 O4'       -3.1537    -7.0880  2526.4992 O.3      772 DT      0.0000
    231 C3'       -2.5681    -8.6619  2528.0870 C.3      772 DT      0.0000
    232 O3'       -1.5074    -9.6102  2527.8988 O.3      772 DT      0.0000
    233 C2'       -2.0290    -7.2864  2528.4793 C.3      772 DT      0.0000
    234 C1'       -1.9197    -6.6323  2527.1265 C.3      772 DT      0.0000
    235 N1        -1.9915    -5.1742  2527.2232 N.am     772 DT      0.0000
    236 C2        -0.8338    -4.4716  2527.0252 C.2      772 DT      0.0000
    237 O2         0.2391    -5.0213  2526.7871 O.2      772 DT      0.0000
    238 N3        -0.9109    -3.1073  2527.1063 N.am     772 DT      0.0000
    239 C4        -2.0648    -2.4502  2527.3622 C.2      772 DT      0.0000
    240 O4        -1.9795    -1.1951  2527.4075 O.2      772 DT      0.0000
    241 C5        -3.2669    -3.2022  2527.5619 C.2      772 DT      0.0000
    242 C7        -4.5635    -2.5143  2527.8418 C.3      772 DT      0.0000
    243 C6        -3.1821    -4.5362  2527.4804 C.2      772 DT      0.0000
    244 H5'       -4.9390    -9.6205  2527.5302 H        772 DT      0.0000
    245 H5''      -4.9321    -9.3976  2525.7556 H        772 DT      0.0000
    246 H4'       -2.7295    -9.0102  2526.0098 H        772 DT      0.0000
    247 H3'       -3.2645    -9.0224  2528.8441 H        772 DT      0.0000
    248 H2'       -2.7239    -6.7531  2529.1281 H        772 DT      0.0000
    249 H2''      -1.0490    -7.3733  2528.9485 H        772 DT      0.0000
    250 H1'       -1.0361    -6.9638  2526.5812 H        772 DT      0.0000
    251 H3        -0.0685    -2.5674  2526.9688 H        772 DT      0.0000
    252 H6        -4.0747    -5.1280  2527.6208 H        772 DT      0.0000
    253 H71       -5.1700    -2.4987  2526.9363 H        772 DT      0.0000
    254 H72       -4.3695    -1.4922  2528.1666 H        772 DT      0.0000
    255 H73       -5.0968    -3.0501  2528.6271 H        772 DT      0.0000
    256 P         -1.2965   -10.5917  2529.1788 P.3      773 DG      0.0000
    257 OP1       -0.9381   -11.8882  2528.4637 O.co2    773 DG      0.0000
    258 OP2       -2.5360   -10.6553  2529.9323 O.co2    773 DG      0.0000
    259 O5'       -0.0113    -9.7910  2529.7883 O.3      773 DG      0.0000
    260 C5'        0.9386    -9.4883  2528.6977 C.3      773 DG      0.0000
    261 C4'        1.9222    -8.4818  2529.2177 C.3      773 DG      0.0000
    262 O4'        1.5909    -7.1309  2529.0372 O.3      773 DG      0.0000
    263 C3'        2.2193    -8.6689  2530.7258 C.3      773 DG      0.0000
    264 O3'        3.6534    -8.7926  2530.8846 O.3      773 DG      0.0000
    265 C2'        1.5710    -7.4666  2531.3784 C.3      773 DG      0.0000
    266 C1'        1.7276    -6.4041  2530.2968 C.3      773 DG      0.0000
    267 N9         0.7521    -5.3214  2530.4663 N.ar     773 DG      0.0000
    268 C8        -0.5708    -5.4067  2530.8025 C.ar     773 DG      0.0000
    269 N7        -1.1902    -4.2500  2530.8883 N.ar     773 DG      0.0000
    270 C5        -0.1917    -3.3364  2530.5583 C.ar     773 DG      0.0000
    271 C6        -0.2235    -1.9156  2530.4639 C.2      773 DG      0.0000
    272 O6        -1.1849    -1.1564  2530.6562 O.2      773 DG      0.0000
    273 N1         0.9812    -1.3409  2530.1289 N.am     773 DG      0.0000
    274 C2         2.0979    -2.0870  2529.9051 C.2      773 DG      0.0000
    275 N2         3.1794    -1.3594  2529.5963 N.pl3    773 DG      0.0000
    276 N3         2.1773    -3.4138  2529.9761 N.2      773 DG      0.0000
    277 C4         1.0016    -3.9772  2530.3027 C.ar     773 DG      0.0000
    278 H5'        1.4606   -10.3968  2528.3972 H        773 DG      0.0000
    279 H5''       0.4013    -9.0726  2527.8453 H        773 DG      0.0000
    280 H4'        2.8591    -8.6515  2528.6872 H        773 DG      0.0000
    281 H3'        1.7354    -9.5789  2531.0805 H        773 DG      0.0000
    282 H2'        0.5207    -7.6542  2531.6013 H        773 DG      0.0000
    283 H2''       2.1111    -7.1801  2532.2808 H        773 DG      0.0000
    284 H1'        2.7326    -5.9861  2530.3557 H        773 DG      0.0000
    285 H8        -1.0671    -6.3488  2530.9832 H        773 DG      0.0000
    286 H1         1.0386    -0.3359  2530.0465 H        773 DG      0.0000
    287 H21        3.1133    -0.3528  2529.5461 H        773 DG      0.0000
    288 H22        4.0609    -1.8174  2529.4136 H        773 DG      0.0000
    289 P          4.2986    -9.1084  2532.2731 P.3      774 DA      0.0000
    290 OP1        4.4627   -10.5506  2532.6284 O.co2    774 DA      0.0000
    291 OP2        3.1434    -8.5279  2533.1688 O.co2    774 DA      0.0000
    292 O5'        5.5101    -8.1160  2532.5222 O.3      774 DA      0.0000
    293 C5'        6.2424    -7.4344  2531.4931 C.3      774 DA      0.0000
    294 C4'        6.3545    -5.9946  2531.9675 C.3      774 DA      0.0000
    295 O4'        5.1027    -5.3484  2531.8771 O.3      774 DA      0.0000
    296 C3'        6.8576    -5.7902  2533.3965 C.3      774 DA      0.0000
    297 O3'        7.8828    -4.7767  2533.4488 O.3      774 DA      0.0000
    298 C2'        5.5749    -5.3833  2534.1319 C.3      774 DA      0.0000
    299 C1'        4.9428    -4.5154  2533.0544 C.3      774 DA      0.0000
    300 N9         3.5228    -4.2299  2533.2828 N.ar     774 DA      0.0000
    301 C8         2.4789    -5.0843  2533.4985 C.ar     774 DA      0.0000
    302 N7         1.3225    -4.4816  2533.6635 N.ar     774 DA      0.0000
    303 C5         1.6260    -3.1356  2533.5233 C.ar     774 DA      0.0000
    304 C6         0.8118    -1.9829  2533.5713 C.ar     774 DA      0.0000
    305 N6        -0.5050    -1.9974  2533.7910 N.pl3    774 DA      0.0000
    306 N1         1.4666    -0.7990  2533.3814 N.ar     774 DA      0.0000
    307 C2         2.8016    -0.7616  2533.1637 C.ar     774 DA      0.0000
    308 N3         3.6300    -1.8036  2533.1054 N.ar     774 DA      0.0000
    309 C4         2.9685    -2.9603  2533.2923 C.ar     774 DA      0.0000
    310 H5'        5.7053    -7.4836  2530.5459 H        774 DA      0.0000
    311 H5''       7.2347    -7.8726  2531.3853 H        774 DA      0.0000
    312 H4'        7.0422    -5.4783  2531.2977 H        774 DA      0.0000
    313 H3'        7.2381    -6.7295  2533.7979 H        774 DA      0.0000
    314 H2'        4.9545    -6.2453  2534.3774 H        774 DA      0.0000
    315 H2''       5.8028    -4.7981  2535.0228 H        774 DA      0.0000
    316 H1'        5.5020    -3.5868  2532.9398 H        774 DA      0.0000
    317 H8         2.5935    -6.1577  2533.5306 H        774 DA      0.0000
    318 H2         3.2415     0.2146  2533.0223 H        774 DA      0.0000
    319 H61       -1.0993    -2.8083  2533.6936 H        774 DA      0.0000
    320 H62       -1.0288    -1.1510  2533.6195 H        774 DA      0.0000
    321 P          9.0640    -4.7794  2534.5902 P.3      775 DA      0.0000
    322 OP1       10.4107    -4.9101  2533.9232 O.co2    775 DA      0.0000
    323 OP2        8.6545    -5.9299  2535.4212 O.co2    775 DA      0.0000
    324 O5'        9.0330    -3.2753  2535.1211 O.3      775 DA      0.0000
    325 C5'        9.2999    -2.1419  2534.2967 C.3      775 DA      0.0000
    326 C4'        8.4804    -0.9750  2534.8190 C.3      775 DA      0.0000
    327 O4'        7.1158    -1.2853  2534.8472 O.3      775 DA      0.0000
    328 C3'        8.8426    -0.4216  2536.1864 C.3      775 DA      0.0000
    329 O3'        9.2986     0.9288  2536.1085 O.3      775 DA      0.0000
    330 C2'        7.5695    -0.6330  2537.0151 C.3      775 DA      0.0000
    331 C1'        6.4752    -0.6890  2536.0213 C.3      775 DA      0.0000
    332 N9         5.2640    -1.4856  2536.2893 N.ar     775 DA      0.0000
    333 C8         5.1087    -2.8457  2536.4045 C.ar     775 DA      0.0000
    334 N7         3.8663    -3.2317  2536.5738 N.ar     775 DA      0.0000
    335 C5         3.1423    -2.0443  2536.5368 C.ar     775 DA      0.0000
    336 C6         1.7481    -1.7803  2536.6573 C.ar     775 DA      0.0000
    337 N6         0.8048    -2.6940  2536.8489 N.pl3    775 DA      0.0000
    338 N1         1.3840    -0.4606  2536.5591 N.ar     775 DA      0.0000
    339 C2         2.3265     0.5080  2536.3700 C.ar     775 DA      0.0000
    340 N3         3.6384     0.3315  2536.2622 N.ar     775 DA      0.0000
    341 C4         3.9809    -0.9693  2536.3540 C.ar     775 DA      0.0000
    342 H5'        9.0175    -2.3597  2533.2667 H        775 DA      0.0000
    343 H5''      10.3607    -1.8957  2534.3427 H        775 DA      0.0000
    344 H4'        8.6034    -0.1595  2534.1063 H        775 DA      0.0000
    345 H3'        9.6389    -1.0339  2536.6096 H        775 DA      0.0000
    346 H2'        7.6271    -1.5663  2537.5754 H        775 DA      0.0000
    347 H2''       7.4188     0.2057  2537.6947 H        775 DA      0.0000
    348 H1'        6.1751     0.3296  2535.7752 H        775 DA      0.0000
    349 H8         5.9372    -3.5370  2536.3597 H        775 DA      0.0000
    350 H2         1.9681     1.5245  2536.3008 H        775 DA      0.0000
    351 H61        1.0160    -3.6263  2537.1751 H        775 DA      0.0000
    352 H62       -0.1570    -2.4487  2536.6621 H        775 DA      0.0000
    353 P         10.4290     1.6013  2537.0647 P.3      776 DT      0.0000
    354 OP1       11.3836     2.4828  2536.2674 O.co2    776 DT      0.0000
    355 OP2       11.0695     0.5949  2537.8853 O.co2    776 DT      0.0000
    356 O5'        9.5458     2.7250  2537.8785 O.3      776 DT      0.0000
    357 C5'        8.5873     3.3675  2536.9334 C.3      776 DT      0.0000
    358 C4'        7.3069     3.4821  2537.7211 C.3      776 DT      0.0000
    359 O4'        6.6479     2.2505  2537.9131 O.3      776 DT      0.0000
    360 C3'        7.5429     4.0378  2539.1377 C.3      776 DT      0.0000
    361 O3'        7.2651     5.4259  2539.1393 O.3      776 DT      0.0000
    362 C2'        6.6349     3.2005  2540.0349 C.3      776 DT      0.0000
    363 C1'        5.7439     2.5254  2539.0703 C.3      776 DT      0.0000
    364 N1         5.1066     1.2631  2539.4101 N.am     776 DT      0.0000
    365 C2         3.7221     1.2753  2539.5480 C.2      776 DT      0.0000
    366 O2         3.1108     2.3324  2539.4600 O.2      776 DT      0.0000
    367 N3         3.0898     0.0958  2539.8020 N.am     776 DT      0.0000
    368 C4         3.7586    -1.0888  2539.9221 C.2      776 DT      0.0000
    369 O4         3.0976    -2.1456  2540.1773 O.2      776 DT      0.0000
    370 C5         5.1820    -1.0804  2539.7506 C.2      776 DT      0.0000
    371 C7         5.9641    -2.3616  2539.8381 C.3      776 DT      0.0000
    372 C6         5.8005     0.0853  2539.4948 C.2      776 DT      0.0000
    373 H5'        8.9443     4.3523  2536.6317 H        776 DT      0.0000
    374 H5''       8.4377     2.7350  2536.0583 H        776 DT      0.0000
    375 H4'        6.6337     4.1566  2537.1919 H        776 DT      0.0000
    376 H3'        8.5826     3.8759  2539.4220 H        776 DT      0.0000
    377 H2'        7.2123     2.4753  2540.6083 H        776 DT      0.0000
    378 H2''       6.0593     3.8428  2540.7013 H        776 DT      0.0000
    379 H1'        4.9753     3.2300  2538.7530 H        776 DT      0.0000
    380 H3         2.0851     0.0973  2539.9057 H        776 DT      0.0000
    381 H6         6.8711     0.0934  2539.3526 H        776 DT      0.0000
    382 H71        5.2861    -3.1880  2540.0511 H        776 DT      0.0000
    383 H72        6.4710    -2.5430  2538.8903 H        776 DT      0.0000
    384 H73        6.7027    -2.2827  2540.6359 H        776 DT      0.0000
    385 P          7.5455     6.4778  2540.2460 P.3      777 DT      0.0000
    386 OP1        7.6127     7.9009  2539.6339 O.co2    777 DT      0.0000
    387 OP2        8.8329     6.0869  2540.8759 O.co2    777 DT      0.0000
    388 O5'        6.2065     6.4990  2541.1283 O.3      777 DT      0.0000
    389 C5'        5.0837     7.0851  2540.4165 C.3      777 DT      0.0000
    390 C4'        3.8222     6.6733  2541.0927 C.3      777 DT      0.0000
    391 O4'        3.5895     5.2705  2541.0693 O.3      777 DT      0.0000
    392 C3'        3.7154     7.1151  2542.5593 C.3      777 DT      0.0000
    393 O3'        2.4218     7.6241  2542.8233 O.3      777 DT      0.0000
    394 C2'        3.9084     5.7681  2543.2956 C.3      777 DT      0.0000
    395 C1'        3.0355     4.9211  2542.3921 C.3      777 DT      0.0000
    396 N1         3.1905     3.5092  2542.6898 N.am     777 DT      0.0000
    397 C2         2.0553     2.7169  2542.7446 C.2      777 DT      0.0000
    398 O2         0.9550     3.2378  2542.5562 O.2      777 DT      0.0000
    399 N3         2.2088     1.3853  2543.0105 N.am     777 DT      0.0000
    400 C4         3.4309     0.8229  2543.2175 C.2      777 DT      0.0000
    401 O4         3.4966    -0.4197  2543.4408 O.2      777 DT      0.0000
    402 C5         4.5922     1.6469  2543.1524 C.2      777 DT      0.0000
    403 C7         5.9742     1.1003  2543.3624 C.3      777 DT      0.0000
    404 C6         4.4232     2.9524  2542.8913 C.2      777 DT      0.0000
    405 H5'        5.1685     8.1717  2540.4289 H        777 DT      0.0000
    406 H5''       5.0787     6.7304  2539.3858 H        777 DT      0.0000
    407 H4'        3.0001     7.1447  2540.5542 H        777 DT      0.0000
    408 H3'        4.4925     7.8331  2542.8217 H        777 DT      0.0000
    409 H2'        4.9477     5.4400  2543.2944 H        777 DT      0.0000
    410 H2''       3.5074     5.8094  2544.3084 H        777 DT      0.0000
    411 H1'        1.9906     5.2219  2542.4677 H        777 DT      0.0000
    412 H3         1.3878     0.7988  2543.0549 H        777 DT      0.0000
    413 H6         5.2947     3.5881  2542.8382 H        777 DT      0.0000
    414 H71        5.9159     0.0301  2543.5613 H        777 DT      0.0000
    415 H72        6.5720     1.2711  2542.4671 H        777 DT      0.0000
    416 H73        6.4387     1.6027  2544.2108 H        777 DT      0.0000
    417 P          1.8230     8.9412  2543.4313 P.3      778 DC      0.0000
    418 OP1        1.1676     9.7957  2542.3634 O.co2    778 DC      0.0000
    419 OP2        2.9346     9.5720  2544.1663 O.co2    778 DC      0.0000
    420 O5'        0.6122     8.2258  2544.2573 O.3      778 DC      0.0000
    421 C5'       -0.0657     7.4068  2543.2351 C.3      778 DC      0.0000
    422 C4'       -1.1610     6.6506  2543.9316 C.3      778 DC      0.0000
    423 O4'       -0.8224     5.3211  2544.1785 O.3      778 DC      0.0000
    424 C3'       -1.6652     7.2848  2545.2230 C.3      778 DC      0.0000
    425 O3'       -3.0649     7.5191  2545.1433 O.3      778 DC      0.0000
    426 C2'       -1.1552     6.2940  2546.2718 C.3      778 DC      0.0000
    427 C1'       -1.1245     4.9914  2545.5754 C.3      778 DC      0.0000
    428 N1        -0.0230     4.0824  2545.9075 N.am     778 DC      0.0000
    429 C2        -0.3810     2.7605  2546.1633 C.2      778 DC      0.0000
    430 O2        -1.5634     2.4042  2546.1678 O.2      778 DC      0.0000
    431 N3         0.6301     1.8729  2546.4371 N.2      778 DC      0.0000
    432 C4         1.9384     2.2586  2546.4272 C.2      778 DC      0.0000
    433 N4         2.8435     1.3265  2546.7040 N.pl3    778 DC      0.0000
    434 C5         2.2874     3.5985  2546.1492 C.2      778 DC      0.0000
    435 C6         1.2826     4.4586  2545.8844 C.2      778 DC      0.0000
    436 H5'       -0.4877     8.0483  2542.4614 H        778 DC      0.0000
    437 H5''       0.6427     6.7076  2542.7908 H        778 DC      0.0000
    438 H4'       -2.0078     6.6316  2543.2456 H        778 DC      0.0000
    439 H3'       -1.1578     8.2387  2545.3663 H        778 DC      0.0000
    440 H2'       -0.1570     6.5724  2546.6097 H        778 DC      0.0000
    441 H2''      -1.8418     6.2533  2547.1173 H        778 DC      0.0000
    442 H1'       -2.0858     4.4840  2545.6563 H        778 DC      0.0000
    443 H5         3.3179     3.9218  2546.1486 H        778 DC      0.0000
    444 H6         1.5245     5.4837  2545.6454 H        778 DC      0.0000
    445 H41        2.5500     0.3809  2546.9033 H        778 DC      0.0000
    446 H42        3.8253     1.5636  2546.7154 H        778 DC      0.0000
    447 P         -3.9296     8.5087  2546.0954 P.3      779 DA      0.0000
    448 OP1       -5.1505     8.9325  2545.3016 O.co2    779 DA      0.0000
    449 OP2       -3.0754     9.6632  2546.4409 O.co2    779 DA      0.0000
    450 O5'       -4.3171     7.5729  2547.3924 O.3      779 DA      0.0000
    451 C5'       -4.9533     6.2919  2547.0972 C.3      779 DA      0.0000
    452 C4'       -5.1563     5.5084  2548.3524 C.3      779 DA      0.0000
    453 O4'       -4.1839     4.4872  2548.5946 O.3      779 DA      0.0000
    454 C3'       -5.1061     6.3201  2549.6577 C.3      779 DA      0.0000
    455 O3'       -5.7500     5.5665  2550.6876 O.3      779 DA      0.0000
    456 C2'       -3.5797     6.3529  2549.8723 C.3      779 DA      0.0000
    457 C1'       -3.3454     4.8497  2549.6890 C.3      779 DA      0.0000
    458 N9        -1.9177     4.5959  2549.5947 N.ar     779 DA      0.0000
    459 C8        -0.8651     5.4610  2549.4788 C.ar     779 DA      0.0000
    460 N7         0.3263     4.8908  2549.4602 N.ar     779 DA      0.0000
    461 C5         0.0315     3.5390  2549.5678 C.ar     779 DA      0.0000
    462 C6         0.8562     2.3876  2549.6023 C.ar     779 DA      0.0000
    463 N6         2.1742     2.4074  2549.5170 N.pl3    779 DA      0.0000
    464 N1         0.2125     1.1906  2549.7349 N.ar     779 DA      0.0000
    465 C2        -1.1530     1.1236  2549.8151 C.ar     779 DA      0.0000
    466 N3        -1.9919     2.1564  2549.7852 N.ar     779 DA      0.0000
    467 C4        -1.3357     3.3362  2549.6622 C.ar     779 DA      0.0000
    468 H5'       -5.9197     6.4713  2546.6260 H        779 DA      0.0000
    469 H5''      -4.3202     5.7234  2546.4159 H        779 DA      0.0000
    470 H4'       -6.1344     5.0309  2548.2936 H        779 DA      0.0000
    471 H3'       -5.5316     7.3171  2549.5440 H        779 DA      0.0000
    472 H2'       -3.0641     6.9517  2549.1215 H        779 DA      0.0000
    473 H2''      -3.3261     6.6755  2550.8822 H        779 DA      0.0000
    474 H1'       -3.7176     4.3418  2550.5786 H        779 DA      0.0000
    475 H8        -0.9978     6.5305  2549.4079 H        779 DA      0.0000
    476 H2        -1.5899     0.1407  2549.9115 H        779 DA      0.0000
    477 H61        2.9012     1.7297  2549.6971 H        779 DA      0.0000
    478 H62        2.5347     3.2968  2549.2023 H        779 DA      0.0000
    479 P         -7.3437     5.5382  2550.8281 P.3      780 DC      0.0000
    480 OP1       -8.0506     5.9519  2549.5830 O.co2    780 DC      0.0000
    481 OP2       -7.5782     6.4832  2551.9710 O.co2    780 DC      0.0000
    482 O5'       -7.6575     4.0099  2551.1112 O.3      780 DC      0.0000
    483 C5'       -7.7418     3.0400  2550.0235 C.3      780 DC      0.0000
    484 C4'       -7.3092     1.7495  2550.7285 C.3      780 DC      0.0000
    485 O4'       -5.9415     1.8793  2551.0405 O.3      780 DC      0.0000
    486 C3'       -8.0474     1.4863  2552.0384 C.3      780 DC      0.0000
    487 O3'       -8.6176     0.1597  2552.1063 O.3      780 DC      0.0000
    488 C2'       -6.9892     1.7487  2553.1206 C.3      780 DC      0.0000
    489 C1'       -5.7372     1.3605  2552.4444 C.3      780 DC      0.0000
    490 N1        -4.4586     1.9722  2552.7972 N.am     780 DC      0.0000
    491 C2        -3.3630     1.1114  2552.7703 C.2      780 DC      0.0000
    492 O2        -3.4712    -0.0908  2552.5634 O.2      780 DC      0.0000
    493 N3        -2.1396     1.6490  2553.0235 N.2      780 DC      0.0000
    494 C4        -1.9601     2.9717  2553.2568 C.2      780 DC      0.0000
    495 N4        -0.7136     3.3794  2553.4877 N.pl3    780 DC      0.0000
    496 C5        -3.0845     3.8423  2553.2634 C.2      780 DC      0.0000
    497 C6        -4.2885     3.3046  2553.0139 C.2      780 DC      0.0000
    498 H5'       -8.7586     2.9614  2549.6387 H        780 DC      0.0000
    499 H5''      -7.0456     3.2951  2549.2245 H        780 DC      0.0000
    500 H4'       -7.4497     0.9034  2550.0558 H        780 DC      0.0000
    501 H3'       -8.8476     2.2188  2552.1443 H        780 DC      0.0000
    502 H2'       -6.9720     2.8002  2553.4076 H        780 DC      0.0000
    503 H2''      -7.1664     1.1168  2553.9908 H        780 DC      0.0000
    504 H1'       -5.6410     0.2748  2552.4311 H        780 DC      0.0000
    505 H5        -2.9734     4.8981  2553.4619 H        780 DC      0.0000
    506 H6        -5.1524     3.9520  2552.9842 H        780 DC      0.0000
    507 H41        0.0457     2.7135  2553.4767 H        780 DC      0.0000
    508 H42       -0.5275     4.3545  2553.6739 H        780 DC      0.0000
    509 P          8.3526    -1.5102  2555.0658 P.3      780 DG      0.0000
    510 OP1        9.8242    -1.7083  2555.2446 O.co2    780 DG      0.0000
    511 OP2        8.0147    -0.4961  2553.9810 O.co2    780 DG      0.0000
    512 O5'        7.6263    -2.9727  2554.8586 O.3      780 DG      0.0000
    513 C5'        6.8325    -3.5375  2555.9543 C.3      780 DG      0.0000
    514 C4'        5.6257    -4.2252  2555.3201 C.3      780 DG      0.0000
    515 O4'        4.5223    -3.3664  2555.2242 O.3      780 DG      0.0000
    516 C3'        5.8730    -4.7646  2553.9137 C.3      780 DG      0.0000
    517 O3'        5.2519    -6.0433  2553.6467 O.3      780 DG      0.0000
    518 C2'        5.2969    -3.6584  2553.0114 C.3      780 DG      0.0000
    519 C1'        4.0996    -3.2146  2553.8352 C.3      780 DG      0.0000
    520 N9         3.7600    -1.8077  2553.5619 N.ar     780 DG      0.0000
    521 C8         4.6191    -0.7460  2553.4053 C.ar     780 DG      0.0000
    522 N7         4.0198     0.3943  2553.1869 N.ar     780 DG      0.0000
    523 C5         2.6693     0.0665  2553.2117 C.ar     780 DG      0.0000
    524 C6         1.5070     0.8678  2553.0552 C.2      780 DG      0.0000
    525 O6         1.4722     2.0909  2552.8584 O.2      780 DG      0.0000
    526 N1         0.3258     0.1731  2553.1421 N.am     780 DG      0.0000
    527 C2         0.2772    -1.1635  2553.3628 C.2      780 DG      0.0000
    528 N2        -0.9387    -1.6994  2553.4261 N.pl3    780 DG      0.0000
    529 N3         1.3394    -1.9627  2553.5205 N.2      780 DG      0.0000
    530 C4         2.4980    -1.2804  2553.4372 C.ar     780 DG      0.0000
    531 H5'        7.4261    -4.2619  2556.5121 H        780 DG      0.0000
    532 H5''       6.4985    -2.7411  2556.6193 H        780 DG      0.0000
    533 H4'        5.3442    -5.0639  2555.9568 H        780 DG      0.0000
    534 H3'        6.9467    -4.8443  2553.7432 H        780 DG      0.0000
    535 H2'        6.0091    -2.8458  2552.8687 H        780 DG      0.0000
    536 H2''       4.9778    -4.0671  2552.0527 H        780 DG      0.0000
    537 H1'        3.2423    -3.8558  2553.6300 H        780 DG      0.0000
    538 H8         5.6932    -0.8455  2553.4580 H        780 DG      0.0000
    539 H1        -0.5423     0.6786  2553.0373 H        780 DG      0.0000
    540 H21       -1.7546    -1.1154  2553.3111 H        780 DG      0.0000
    541 H22       -1.0459    -2.6904  2553.5893 H        780 DG      0.0000
    542 P          4.8290    -6.3042  2552.1232 P.3      779 DT      0.0000
    543 OP1        4.8350    -7.7575  2551.7323 O.co2    779 DT      0.0000
    544 OP2        5.9008    -5.5549  2551.4227 O.co2    779 DT      0.0000
    545 O5'        3.3484    -5.7057  2551.9923 O.3      779 DT      0.0000
    546 C5'        2.2403    -6.6235  2552.2600 C.3      779 DT      0.0000
    547 C4'        1.0235    -6.1378  2551.5029 C.3      779 DT      0.0000
    548 O4'        0.9178    -4.7255  2551.4756 O.3      779 DT      0.0000
    549 C3'        1.0101    -6.5813  2550.0482 C.3      779 DT      0.0000
    550 O3'       -0.2996    -6.9349  2549.5531 O.3      779 DT      0.0000
    551 C2'        1.5806    -5.3813  2549.3254 C.3      779 DT      0.0000
    552 C1'        0.8913    -4.2727  2550.1035 C.3      779 DT      0.0000
    553 N1         1.7232    -3.0685  2549.9522 N.am     779 DT      0.0000
    554 C2         1.0635    -1.8484  2550.0589 C.2      779 DT      0.0000
    555 O2        -0.1476    -1.8110  2550.2487 O.2      779 DT      0.0000
    556 N3         1.8208    -0.7168  2549.9388 N.am     779 DT      0.0000
    557 C4         3.1650    -0.7686  2549.7212 C.2      779 DT      0.0000
    558 O4         3.7871     0.3405  2549.6236 O.2      779 DT      0.0000
    559 C5         3.8124    -2.0327  2549.6148 C.2      779 DT      0.0000
    560 C7         5.2951    -2.1018  2549.3859 C.3      779 DT      0.0000
    561 C6         3.0678    -3.1346  2549.7366 C.2      779 DT      0.0000
    562 H5'        2.5049    -7.6269  2551.9262 H        779 DT      0.0000
    563 H5''       2.0258    -6.6374  2553.3286 H        779 DT      0.0000
    564 H4'        0.1348    -6.5380  2551.9909 H        779 DT      0.0000
    565 H3'        1.6830    -7.4297  2549.9242 H        779 DT      0.0000
    566 H2'        2.6654    -5.3289  2549.4169 H        779 DT      0.0000
    567 H2''       1.2752    -5.3731  2548.2790 H        779 DT      0.0000
    568 H1'       -0.1273    -4.1064  2549.7528 H        779 DT      0.0000
    569 H3         1.3708     0.1843  2550.0134 H        779 DT      0.0000
    570 H6         3.5425    -4.1019  2549.6624 H        779 DT      0.0000
    571 H71        5.7001    -1.0921  2549.3172 H        779 DT      0.0000
    572 H72        5.7667    -2.6264  2550.2167 H        779 DT      0.0000
    573 H73        5.4949    -2.6373  2548.4577 H        779 DT      0.0000
    574 P         -0.1502    -8.3931  2548.7747 P.3      778 DG      0.0000
    575 OP1       -0.4622    -9.5661  2549.6460 O.co2    778 DG      0.0000
    576 OP2        1.2731    -8.2800  2548.3692 O.co2    778 DG      0.0000
    577 O5'       -1.3209    -8.2672  2547.6939 O.3      778 DG      0.0000
    578 C5'       -2.6903    -8.4875  2548.1174 C.3      778 DG      0.0000
    579 C4'       -3.4417    -7.2401  2547.6696 C.3      778 DG      0.0000
    580 O4'       -2.6616    -6.0927  2547.9403 O.3      778 DG      0.0000
    581 C3'       -3.7924    -7.2153  2546.1819 C.3      778 DG      0.0000
    582 O3'       -5.1831    -7.0461  2545.9734 O.3      778 DG      0.0000
    583 C2'       -2.9072    -6.1248  2545.6052 C.3      778 DG      0.0000
    584 C1'       -2.6797    -5.2177  2546.7913 C.3      778 DG      0.0000
    585 N9        -1.4060    -4.5037  2546.6678 N.ar     778 DG      0.0000
    586 C8        -0.1533    -5.0252  2546.5089 C.ar     778 DG      0.0000
    587 N7         0.7898    -4.1182  2546.4309 N.ar     778 DG      0.0000
    588 C5         0.1104    -2.9113  2546.5684 C.ar     778 DG      0.0000
    589 C6         0.5628    -1.5655  2546.5778 C.2      778 DG      0.0000
    590 O6         1.7209    -1.1727  2546.4788 O.2      778 DG      0.0000
    591 N1        -0.4257    -0.6346  2546.7268 N.am     778 DG      0.0000
    592 C2        -1.7468    -0.9874  2546.8597 C.2      778 DG      0.0000
    593 N2        -2.6081     0.0214  2546.9954 N.pl3    778 DG      0.0000
    594 N3        -2.2382    -2.2307  2546.8640 N.2      778 DG      0.0000
    595 C4        -1.2471    -3.1421  2546.7133 C.ar     778 DG      0.0000
    596 H5'       -3.1019    -9.3760  2547.6386 H        778 DG      0.0000
    597 H5''      -2.7380    -8.5873  2549.2017 H        778 DG      0.0000
    598 H4'       -4.3663    -7.1708  2548.2426 H        778 DG      0.0000
    599 H3'       -3.4934    -8.1673  2545.7433 H        778 DG      0.0000
    600 H2'       -1.9664    -6.5355  2545.2388 H        778 DG      0.0000
    601 H2''      -3.4271    -5.5910  2544.8096 H        778 DG      0.0000
    602 H1'       -3.4998    -4.5050  2546.8784 H        778 DG      0.0000
    603 H8         0.0417    -6.0860  2546.4528 H        778 DG      0.0000
    604 H1        -0.1774     0.3443  2546.7397 H        778 DG      0.0000
    605 H21       -2.2737     0.9744  2546.9963 H        778 DG      0.0000
    606 H22       -3.5950    -0.1675  2547.0971 H        778 DG      0.0000
    607 P         -6.0739    -6.0698  2545.1071 P.3      777 DA      0.0000
    608 OP1       -7.3317    -5.6694  2545.8885 O.co2    777 DA      0.0000
    609 OP2       -6.4358    -6.8390  2543.9144 O.co2    777 DA      0.0000
    610 O5'       -5.2095    -4.7000  2544.9323 O.3      777 DA      0.0000
    611 C5'       -5.3811    -3.7975  2546.0888 C.3      777 DA      0.0000
    612 C4'       -6.0244    -2.5390  2545.5609 C.3      777 DA      0.0000
    613 O4'       -5.0924    -1.5113  2545.3387 O.3      777 DA      0.0000
    614 C3'       -6.7281    -2.7467  2544.2205 C.3      777 DA      0.0000
    615 O3'       -7.9591    -2.0682  2544.1453 O.3      777 DA      0.0000
    616 C2'       -5.6489    -2.3636  2543.2239 C.3      777 DA      0.0000
    617 C1'       -4.7093    -1.4400  2543.9477 C.3      777 DA      0.0000
    618 N9        -3.3017    -1.8103  2543.7222 N.ar     777 DA      0.0000
    619 C8        -2.7542    -3.0612  2543.5359 C.ar     777 DA      0.0000
    620 N7        -1.4557    -3.0604  2543.3400 N.ar     777 DA      0.0000
    621 C5        -1.1220    -1.7146  2543.4268 C.ar     777 DA      0.0000
    622 C6         0.1224    -1.0504  2543.3212 C.ar     777 DA      0.0000
    623 N6         1.2705    -1.6691  2543.1087 N.pl3    777 DA      0.0000
    624 N1         0.0898     0.3052  2543.4449 N.ar     777 DA      0.0000
    625 C2        -1.0816     0.9707  2543.6694 C.ar     777 DA      0.0000
    626 N3        -2.2821     0.4069  2543.7853 N.ar     777 DA      0.0000
    627 C4        -2.2370    -0.9405  2543.6492 C.ar     777 DA      0.0000
    628 H5'       -6.0230    -4.2627  2546.8368 H        777 DA      0.0000
    629 H5''      -4.4101    -3.5637  2546.5254 H        777 DA      0.0000
    630 H4'       -6.7579    -2.1918  2546.2886 H        777 DA      0.0000
    631 H3'       -6.9256    -3.8127  2544.1073 H        777 DA      0.0000
    632 H2'       -6.0909    -1.8553  2542.3670 H        777 DA      0.0000
    633 H2''      -5.1144    -3.2542  2542.8933 H        777 DA      0.0000
    634 H1'       -4.8685    -0.4230  2543.5895 H        777 DA      0.0000
    635 H8        -3.3435    -3.9662  2543.5498 H        777 DA      0.0000
    636 H2        -1.0295     2.0456  2543.7607 H        777 DA      0.0000
    637 H61        2.1441    -1.2721  2543.4241 H        777 DA      0.0000
    638 H62        1.2746    -2.5543  2542.6225 H        777 DA      0.0000
    639 P         -8.6502    -1.2834  2542.9607 P.3      776 DA      0.0000
    640 OP1       -9.8827    -0.4874  2543.4806 O.co2    776 DA      0.0000
    641 OP2       -9.1212    -2.3534  2542.0270 O.co2    776 DA      0.0000
    642 O5'       -7.6283    -0.1948  2542.4580 O.3      776 DA      0.0000
    643 C5'       -7.7459     1.1689  2542.9138 C.3      776 DA      0.0000
    644 C4'       -6.6665     1.9639  2542.2119 C.3      776 DA      0.0000
    645 O4'       -5.4444     1.2934  2542.0911 O.3      776 DA      0.0000
    646 C3'       -7.0577     2.4119  2540.8044 C.3      776 DA      0.0000
    647 O3'       -7.1724     3.8471  2540.7729 O.3      776 DA      0.0000
    648 C2'       -6.0150     1.7458  2539.9048 C.3      776 DA      0.0000
    649 C1'       -4.8224     1.6126  2540.8026 C.3      776 DA      0.0000
    650 N9        -3.9007     0.5217  2540.5030 N.ar     776 DA      0.0000
    651 C8        -4.1669    -0.8178  2540.3082 C.ar     776 DA      0.0000
    652 N7        -3.0932    -1.5475  2540.1028 N.ar     776 DA      0.0000
    653 C5        -2.0512    -0.6438  2540.1773 C.ar     776 DA      0.0000
    654 C6        -0.6536    -0.8023  2540.0439 C.ar     776 DA      0.0000
    655 N6        -0.0603    -1.9670  2539.8007 N.pl3    776 DA      0.0000
    656 N1         0.0814     0.3464  2540.1927 N.ar     776 DA      0.0000
    657 C2        -0.4912     1.5392  2540.4452 C.ar     776 DA      0.0000
    658 N3        -1.8012     1.7642  2540.5841 N.ar     776 DA      0.0000
    659 C4        -2.5227     0.6307  2540.4369 C.ar     776 DA      0.0000
    660 H5'       -8.7285     1.5655  2542.6587 H        776 DA      0.0000
    661 H5''      -7.5968     1.2134  2543.9926 H        776 DA      0.0000
    662 H4'       -6.4880     2.8627  2542.8020 H        776 DA      0.0000
    663 H3'       -8.0332     1.9862  2540.5694 H        776 DA      0.0000
    664 H2'       -6.3591     0.7689  2539.5649 H        776 DA      0.0000
    665 H2''      -5.7817     2.3852  2539.0535 H        776 DA      0.0000
    666 H1'       -4.2847     2.5588  2540.8637 H        776 DA      0.0000
    667 H8        -5.1655    -1.2290  2540.3232 H        776 DA      0.0000
    668 H2         0.1671     2.3896  2540.5443 H        776 DA      0.0000
    669 H61        0.9039    -2.0299  2540.0947 H        776 DA      0.0000
    670 H62       -0.5401    -2.7350  2539.3534 H        776 DA      0.0000
    671 P         -7.5650     4.5680  2539.3879 P.3      775 DT      0.0000
    672 OP1       -7.9861     6.0041  2539.4461 O.co2    775 DT      0.0000
    673 OP2       -8.5986     3.6174  2538.8753 O.co2    775 DT      0.0000
    674 O5'       -6.0540     4.5524  2538.6848 O.3      775 DT      0.0000
    675 C5'       -5.0590     4.8929  2539.6971 C.3      775 DT      0.0000
    676 C4'       -3.8321     5.4067  2539.0142 C.3      775 DT      0.0000
    677 O4'       -2.8453     4.4354  2538.8338 O.3      775 DT      0.0000
    678 C3'       -4.0934     6.0326  2537.6529 C.3      775 DT      0.0000
    679 O3'       -3.2611     7.1680  2537.3856 O.3      775 DT      0.0000
    680 C2'       -3.8380     4.8117  2536.7596 C.3      775 DT      0.0000
    681 C1'       -2.6018     4.2170  2537.3996 C.3      775 DT      0.0000
    682 N1        -2.5277     2.7618  2537.1696 N.am     775 DT      0.0000
    683 C2        -1.2702     2.1973  2537.0480 C.2      775 DT      0.0000
    684 O2        -0.2536     2.8924  2537.0848 O.2      775 DT      0.0000
    685 N3        -1.1885     0.8415  2536.8806 N.am     775 DT      0.0000
    686 C4        -2.2968     0.0548  2536.8321 C.2      775 DT      0.0000
    687 O4        -2.1284    -1.1874  2536.6466 O.2      775 DT      0.0000
    688 C5        -3.5796     0.6527  2536.9805 C.2      775 DT      0.0000
    689 C7        -4.8322    -0.1894  2536.9284 C.3      775 DT      0.0000
    690 C6        -3.6422     1.9771  2537.1535 C.2      775 DT      0.0000
    691 H5'       -5.4585     5.6612  2540.3592 H        775 DT      0.0000
    692 H5''      -4.8093     4.0044  2540.2772 H        775 DT      0.0000
    693 H4'       -3.4087     6.1833  2539.6512 H        775 DT      0.0000
    694 H3'       -5.1413     6.3239  2537.5809 H        775 DT      0.0000
    695 H2'       -4.6756     4.1149  2536.7902 H        775 DT      0.0000
    696 H2''      -3.6309     5.1205  2535.7350 H        775 DT      0.0000
    697 H1'       -1.6954     4.7220  2537.0657 H        775 DT      0.0000
    698 H3        -0.2785     0.4126  2536.7905 H        775 DT      0.0000
    699 H6        -4.6087     2.4409  2537.2849 H        775 DT      0.0000
    700 H71       -5.2523    -0.1548  2535.9232 H        775 DT      0.0000
    701 H72       -5.5608     0.1992  2537.6399 H        775 DT      0.0000
    702 H73       -4.5879    -1.2202  2537.1849 H        775 DT      0.0000
    703 P         -3.4169     7.8240  2535.8957 P.3      774 DT      0.0000
    704 OP1       -4.0093     9.2267  2536.0437 O.co2    774 DT      0.0000
    705 OP2       -4.4138     6.9223  2535.2259 O.co2    774 DT      0.0000
    706 O5'       -2.0109     7.8469  2535.2437 O.3      774 DT      0.0000
    707 C5'       -0.8029     7.9665  2535.9951 C.3      774 DT      0.0000
    708 C4'        0.2856     7.2658  2535.2471 C.3      774 DT      0.0000
    709 O4'        0.2628     5.8651  2535.1901 O.3      774 DT      0.0000
    710 C3'        0.5272     7.6860  2533.7810 C.3      774 DT      0.0000
    711 O3'        1.9471     7.5442  2533.6773 O.3      774 DT      0.0000
    712 C2'       -0.2193     6.5841  2533.0173 C.3      774 DT      0.0000
    713 C1'        0.3391     5.4087  2533.7930 C.3      774 DT      0.0000
    714 N1        -0.4146     4.1562  2533.6868 N.am     774 DT      0.0000
    715 C2         0.3592     2.9878  2533.6862 C.2      774 DT      0.0000
    716 O2         1.5901     3.0398  2533.7293 O.2      774 DT      0.0000
    717 N3        -0.3108     1.7994  2533.6328 N.am     774 DT      0.0000
    718 C4        -1.6705     1.7208  2533.5730 C.2      774 DT      0.0000
    719 O4        -2.1982     0.5697  2533.5106 O.2      774 DT      0.0000
    720 C5        -2.4311     2.9217  2533.5813 C.2      774 DT      0.0000
    721 C7        -3.9425     2.8491  2533.5198 C.3      774 DT      0.0000
    722 C6        -1.7715     4.0819  2533.6477 C.2      774 DT      0.0000
    723 H5'       -0.5475     9.0191  2536.1173 H        774 DT      0.0000
    724 H5''      -0.9321     7.5042  2536.9736 H        774 DT      0.0000
    725 H4'        1.2058     7.5177  2535.7743 H        774 DT      0.0000
    726 H3'        0.1723     8.6909  2533.5523 H        774 DT      0.0000
    727 H2'        0.0507     6.5527  2531.9617 H        774 DT      0.0000
    728 H2''      -1.2978     6.6705  2533.1489 H        774 DT      0.0000
    729 H1'        1.3793     5.2405  2533.5140 H        774 DT      0.0000
    730 H3         0.2235     0.9423  2533.6376 H        774 DT      0.0000
    731 H6        -2.3406     4.9995  2533.6714 H        774 DT      0.0000
    732 H71       -4.2551     1.8060  2533.4710 H        774 DT      0.0000
    733 H72       -4.2956     3.3758  2532.6332 H        774 DT      0.0000
    734 H73       -4.3651     3.3137  2534.4108 H        774 DT      0.0000
    735 P          2.8538     8.0681  2532.5310 P.3      773 DC      0.0000
    736 OP1        4.0434     8.8125  2533.1402 O.co2    773 DC      0.0000
    737 OP2        2.0092     9.0246  2531.7492 O.co2    773 DC      0.0000
    738 O5'        3.2619     6.6750  2531.7916 O.3      773 DC      0.0000
    739 C5'        4.2353     5.8534  2532.5162 C.3      773 DC      0.0000
    740 C4'        5.0749     5.1741  2531.4656 C.3      773 DC      0.0000
    741 O4'        4.6557     3.8518  2531.2203 O.3      773 DC      0.0000
    742 C3'        5.0972     5.8651  2530.1012 C.3      773 DC      0.0000
    743 O3'        6.3322     5.7444  2529.3919 O.3      773 DC      0.0000
    744 C2'        3.9079     5.1791  2529.4151 C.3      773 DC      0.0000
    745 C1'        3.9895     3.7551  2529.9617 C.3      773 DC      0.0000
    746 N1         2.6082     3.2316  2530.0795 N.am     773 DC      0.0000
    747 C2         2.4551     1.8460  2530.0967 C.2      773 DC      0.0000
    748 O2         3.4358     1.0924  2530.0280 O.2      773 DC      0.0000
    749 N3         1.1805     1.3579  2530.1999 N.2      773 DC      0.0000
    750 C4         0.0975     2.1753  2530.2707 C.2      773 DC      0.0000
    751 N4        -1.1259     1.6513  2530.3726 N.pl3    773 DC      0.0000
    752 C5         0.2818     3.5860  2530.2456 C.2      773 DC      0.0000
    753 C6         1.5342     4.0646  2530.1520 C.2      773 DC      0.0000
    754 H5'        4.8601     6.4805  2533.1521 H        773 DC      0.0000
    755 H5''       3.7181     5.1077  2533.1200 H        773 DC      0.0000
    756 H4'        6.0998     5.1345  2531.8344 H        773 DC      0.0000
    757 H3'        4.8675     6.9221  2530.2354 H        773 DC      0.0000
    758 H2'        4.0177     5.1918  2528.3307 H        773 DC      0.0000
    759 H2''       2.9706     5.6502  2529.7110 H        773 DC      0.0000
    760 H1'        4.5676     3.1287  2529.2823 H        773 DC      0.0000
    761 H5        -0.5639     4.2555  2530.3003 H        773 DC      0.0000
    762 H6         1.6917     5.1329  2530.1339 H        773 DC      0.0000
    763 H41       -1.2457     0.6486  2530.3933 H        773 DC      0.0000
    764 H42       -1.9318     2.2574  2530.4290 H        773 DC      0.0000
    765 P          6.4958     5.5772  2527.7599 P.3      772 DA      0.0000
    766 OP1        7.8797     6.0499  2527.3704 O.co2    772 DA      0.0000
    767 OP2        5.3786     6.3783  2527.1898 O.co2    772 DA      0.0000
    768 O5'        6.4473     3.9902  2527.5944 O.3      772 DA      0.0000
    769 C5'        7.6164     3.2101  2528.0598 C.3      772 DA      0.0000
    770 C4'        7.5323     1.9727  2527.1825 C.3      772 DA      0.0000
    771 O4'        6.3110     1.2717  2527.4499 O.3      772 DA      0.0000
    772 C3'        7.4748     2.2924  2525.6781 C.3      772 DA      0.0000
    773 O3'        7.7740     1.1520  2524.8891 O.3      772 DA      0.0000
    774 C2'        5.9652     2.5308  2525.4907 C.3      772 DA      0.0000
    775 C1'        5.5336     1.2437  2526.2453 C.3      772 DA      0.0000
    776 N9         4.0873     1.3733  2526.3907 N.ar     772 DA      0.0000
    777 C8         3.3740     2.5489  2526.4636 C.ar     772 DA      0.0000
    778 N7         2.0824     2.3667  2526.5782 N.ar     772 DA      0.0000
    779 C5         1.9453     0.9671  2526.5718 C.ar     772 DA      0.0000
    780 C6         0.7904     0.1434  2526.6718 C.ar     772 DA      0.0000
    781 N6        -0.4526     0.6179  2526.7946 N.pl3    772 DA      0.0000
    782 N1         1.0482    -1.1940  2526.6366 N.ar     772 DA      0.0000
    783 C2         2.3095    -1.6761  2526.5178 C.ar     772 DA      0.0000
    784 N3         3.4354    -0.9624  2526.4263 N.ar     772 DA      0.0000
    785 C4         3.1686     0.3551  2526.4538 C.ar     772 DA      0.0000
    786 H5'        8.5471     3.7523  2527.8931 H        772 DA      0.0000
    787 H5''       7.5083     2.9448  2529.1114 H        772 DA      0.0000
    788 H4'        8.3816     1.3205  2527.3865 H        772 DA      0.0000
    789 H3'        8.0754     3.1611  2525.4085 H        772 DA      0.0000
    790 H2'        5.6155     3.4439  2525.9723 H        772 DA      0.0000
    791 H2''       5.6797     2.4957  2524.4393 H        772 DA      0.0000
    792 H1'        5.7777     0.3593  2525.6569 H        772 DA      0.0000
    793 H8         3.8346     3.5252  2526.4296 H        772 DA      0.0000
    794 H2         2.4156    -2.7505  2526.4946 H        772 DA      0.0000
    795 H61       -0.6123     1.6149  2526.8194 H        772 DA      0.0000
    796 H62       -1.2323    -0.0203  2526.8627 H        772 DA      0.0000
    797 P          8.8763     1.2207  2523.7482 P.3      771 DC      0.0000
    798 OP1       10.1606     0.9939  2524.5284 O.co2    771 DC      0.0000
    799 OP2        8.8612     2.4959  2523.0226 O.co2    771 DC      0.0000
    800 O5'        8.3789    -0.0059  2522.7723 O.3      771 DC      0.0000
    801 C5'        8.1630    -1.3069  2523.4413 C.3      771 DC      0.0000
    802 C4'        6.9829    -1.9854  2522.7973 C.3      771 DC      0.0000
    803 O4'        5.7424    -1.7055  2523.4344 O.3      771 DC      0.0000
    804 C3'        6.8030    -1.5982  2521.3195 C.3      771 DC      0.0000
    805 O3'        6.2811    -2.6432  2520.5082 O.3      771 DC      0.0000
    806 C2'        5.7141    -0.4880  2521.4851 C.3      771 DC      0.0000
    807 C1'        4.8032    -1.4060  2522.3807 C.3      771 DC      0.0000
    808 N1         3.5816    -0.6825  2522.6186 N.am     771 DC      0.0000
    809 C2         2.4399    -1.4005  2522.9357 C.2      771 DC      0.0000
    810 O2         2.2868    -2.6190  2523.0762 O.2      771 DC      0.0000
    811 N3         1.2793    -0.7052  2523.1339 N.2      771 DC      0.0000
    812 C4         1.2216     0.6564  2523.0180 C.2      771 DC      0.0000
    813 N4         0.0620     1.2968  2523.2340 N.pl3    771 DC      0.0000
    814 C5         2.4013     1.3793  2522.6883 C.2      771 DC      0.0000
    815 C6         3.5240     0.6770  2522.4966 C.2      771 DC      0.0000
    816 H5'        9.0508    -1.9294  2523.3298 H        771 DC      0.0000
    817 H5''       7.9597    -1.1451  2524.4999 H        771 DC      0.0000
    818 H4'        7.1484    -3.0618  2522.8440 H        771 DC      0.0000
    819 H3'        7.7236    -1.1922  2520.9004 H        771 DC      0.0000
    820 H2'        6.0760     0.4007  2522.0022 H        771 DC      0.0000
    821 H2''       5.2365    -0.2413  2520.5369 H        771 DC      0.0000
    822 H1'        4.5747    -2.3220  2521.8358 H        771 DC      0.0000
    823 H5         2.3912     2.4554  2522.5962 H        771 DC      0.0000
    824 H6         4.4260     1.2093  2522.2334 H        771 DC      0.0000
    825 H41       -0.7672     0.7726  2523.4745 H        771 DC      0.0000
    826 H42        0.0185     2.3029  2523.1561 H        771 DC      0.0000
    827 P         -9.8512    -1.8262  2557.1073 P.3      781 DG      0.0000
    828 OP1      -11.2632    -1.3704  2557.1058 O.co2    781 DG      0.0000
    829 OP2       -9.1160    -0.9876  2558.1630 O.co2    781 DG      0.0000
    830 O5'       -9.6000    -3.3872  2557.2857 O.3      781 DG      0.0000
    831 C5'       -9.2696    -4.3742  2556.2857 C.3      781 DG      0.0000
    832 C4'       -8.0824    -5.1714  2556.7845 C.3      781 DG      0.0000
    833 O4'       -6.8553    -4.6146  2556.3654 O.3      781 DG      0.0000
    834 C3'       -7.9634    -5.4068  2558.2767 C.3      781 DG      0.0000
    835 O3'       -7.8361    -6.8203  2558.5887 O.3      781 DG      0.0000
    836 C2'       -6.7582    -4.5880  2558.6986 C.3      781 DG      0.0000
    837 C1'       -5.9236    -4.5134  2557.4429 C.3      781 DG      0.0000
    838 N9        -5.1664    -3.2489  2557.4139 N.ar     781 DG      0.0000
    839 C8        -5.6032    -1.9654  2557.6428 C.ar     781 DG      0.0000
    840 N7        -4.6610    -1.0540  2557.5531 N.ar     781 DG      0.0000
    841 C5        -3.5203    -1.7870  2557.2361 C.ar     781 DG      0.0000
    842 C6        -2.1782    -1.3935  2557.0101 C.2      781 DG      0.0000
    843 O6        -1.7028    -0.2578  2557.0314 O.2      781 DG      0.0000
    844 N1        -1.3117    -2.4141  2556.7286 N.am     781 DG      0.0000
    845 C2        -1.6775    -3.6545  2556.6680 C.2      781 DG      0.0000
    846 N2        -0.6838    -4.3985  2556.3712 N.pl3    781 DG      0.0000
    847 N3        -2.9721    -4.1405  2556.8767 N.2      781 DG      0.0000
    848 C4        -3.8156    -3.1346  2557.1493 C.ar     781 DG      0.0000
    849 H5'      -10.1196    -5.0380  2556.1270 H        781 DG      0.0000
    850 H5''      -9.0117    -3.8775  2555.3504 H        781 DG      0.0000
    851 H4'       -8.1518    -6.1549  2556.3198 H        781 DG      0.0000
    852 H3'       -8.8515    -5.0126  2558.7707 H        781 DG      0.0000
    853 H2'       -7.0591    -3.5928  2559.0256 H        781 DG      0.0000
    854 H2''      -6.2097    -5.0987  2559.4901 H        781 DG      0.0000
    855 H1'       -5.2326    -5.3558  2557.4110 H        781 DG      0.0000
    856 H8        -6.6305    -1.7274  2557.8759 H        781 DG      0.0000
    857 H1        -0.3415    -2.1893  2556.5602 H        781 DG      0.0000
    858 H21        0.2282    -3.9892  2556.2268 H        781 DG      0.0000
    859 H22       -0.8094    -5.3965  2556.2808 H        781 DG      0.0000
    860 P         -7.4142    -7.3436  2560.0172 P.3      782 DT      0.0000
    861 OP1       -8.1497    -8.5551  2560.5289 O.co2    782 DT      0.0000
    862 OP2       -7.8670    -6.1942  2560.9359 O.co2    782 DT      0.0000
    863 O5'       -5.8672    -7.4380  2560.0458 O.3      782 DT      0.0000
    864 C5'       -5.1450    -8.6918  2559.9018 C.3      782 DT      0.0000
    865 C4'       -3.6835    -8.2992  2559.9593 C.3      782 DT      0.0000
    866 O4'       -3.4883    -6.9294  2559.6842 O.3      782 DT      0.0000
    867 C3'       -2.9784    -8.5295  2561.2721 C.3      782 DT      0.0000
    868 O3'       -1.9642    -9.5274  2561.0839 O.3      782 DT      0.0000
    869 C2'       -2.3744    -7.1813  2561.6643 C.3      782 DT      0.0000
    870 C1'       -2.2340    -6.5331  2560.3116 C.3      782 DT      0.0000
    871 N1        -2.2361    -5.0733  2560.4082 N.am     782 DT      0.0000
    872 C2        -1.0462    -4.4268  2560.2103 C.2      782 DT      0.0000
    873 O2        -0.0007    -5.0270  2559.9721 O.2      782 DT      0.0000
    874 N3        -1.0581    -3.0603  2560.2913 N.am     782 DT      0.0000
    875 C4        -2.1793    -2.3489  2560.5472 C.2      782 DT      0.0000
    876 O4        -2.0343    -1.0993  2560.5925 O.2      782 DT      0.0000
    877 C5        -3.4159    -3.0427  2560.7469 C.2      782 DT      0.0000
    878 C7        -4.6782    -2.2938  2561.0268 C.3      782 DT      0.0000
    879 C6        -3.3949    -4.3792  2560.6654 C.2      782 DT      0.0000
    880 H5'       -5.3924    -9.3739  2560.7153 H        782 DT      0.0000
    881 H5''      -5.3748    -9.1516  2558.9406 H        782 DT      0.0000
    882 H4'       -3.1562    -8.8697  2559.1948 H        782 DT      0.0000
    883 H3'       -3.6912    -8.8564  2562.0292 H        782 DT      0.0000
    884 H2'       -3.0430    -6.6155  2562.3131 H        782 DT      0.0000
    885 H2''      -1.3996    -7.3148  2562.1335 H        782 DT      0.0000
    886 H1'       -1.3672    -6.9065  2559.7662 H        782 DT      0.0000
    887 H3        -0.1909    -2.5612  2560.1538 H        782 DT      0.0000
    888 H6        -4.3147    -4.9277  2560.8058 H        782 DT      0.0000
    889 H71       -5.2833    -2.2492  2560.1213 H        782 DT      0.0000
    890 H72       -4.4357    -1.2820  2561.3516 H        782 DT      0.0000
    891 H73       -5.2365    -2.8034  2561.8121 H        782 DT      0.0000
    892 P         -1.8004   -10.5178  2562.3638 P.3      783 DG      0.0000
    893 OP1       -1.5042   -11.8299  2561.6487 O.co2    783 DG      0.0000
    894 OP2       -3.0415   -10.5222  2563.1173 O.co2    783 DG      0.0000
    895 O5'       -0.4784    -9.7793  2562.9733 O.3      783 DG      0.0000
    896 C5'        0.4848    -9.5223  2561.8827 C.3      783 DG      0.0000
    897 C4'        1.5153    -8.5638  2562.4028 C.3      783 DG      0.0000
    898 O4'        1.2488    -7.1987  2562.2222 O.3      783 DG      0.0000
    899 C3'        1.8032    -8.7649  2563.9108 C.3      783 DG      0.0000
    900 O3'        3.2297    -8.9569  2564.0697 O.3      783 DG      0.0000
    901 C2'        1.2130    -7.5330  2564.5634 C.3      783 DG      0.0000
    902 C1'        1.4201    -6.4792  2563.4818 C.3      783 DG      0.0000
    903 N9         0.4974    -5.3512  2563.6514 N.ar     783 DG      0.0000
    904 C8        -0.8281    -5.3733  2563.9876 C.ar     783 DG      0.0000
    905 N7        -1.3916    -4.1884  2564.0733 N.ar     783 DG      0.0000
    906 C5        -0.3507    -3.3235  2563.7433 C.ar     783 DG      0.0000
    907 C6        -0.3146    -1.9028  2563.6490 C.2      783 DG      0.0000
    908 O6        -1.2387    -1.0985  2563.8413 O.2      783 DG      0.0000
    909 N1         0.9161    -1.3862  2563.3139 N.am     783 DG      0.0000
    910 C2         1.9960    -2.1847  2563.0902 C.2      783 DG      0.0000
    911 N2         3.1109    -1.5096  2562.7813 N.pl3    783 DG      0.0000
    912 N3         2.0120    -3.5138  2563.1612 N.2      783 DG      0.0000
    913 C4         0.8107    -4.0205  2563.4878 C.ar     783 DG      0.0000
    914 H5'        0.9629   -10.4546  2561.5823 H        783 DG      0.0000
    915 H5''      -0.0320    -9.0815  2561.0303 H        783 DG      0.0000
    916 H4'        2.4431    -8.7780  2561.8722 H        783 DG      0.0000
    917 H3'        1.2764    -9.6508  2564.2656 H        783 DG      0.0000
    918 H2'        0.1549    -7.6703  2564.7863 H        783 DG      0.0000
    919 H2''       1.7661    -7.2727  2565.4658 H        783 DG      0.0000
    920 H1'        2.4439    -6.1096  2563.5408 H        783 DG      0.0000
    921 H8        -1.3688    -6.2906  2564.1682 H        783 DG      0.0000
    922 H1         1.0214    -0.3851  2563.2316 H        783 DG      0.0000
    923 H21        3.0930    -0.5010  2562.7311 H        783 DG      0.0000
    924 H22        3.9695    -2.0091  2562.5987 H        783 DG      0.0000
    925 P          3.8592    -9.3031  2565.4581 P.3      784 DA      0.0000
    926 OP1        3.9542   -10.7515  2565.8135 O.co2    784 DA      0.0000
    927 OP2        2.7329    -8.6682  2566.3538 O.co2    784 DA      0.0000
    928 O5'        5.1166    -8.3696  2565.7072 O.3      784 DA      0.0000
    929 C5'        5.8806    -7.7238  2564.6782 C.3      784 DA      0.0000
    930 C4'        6.0612    -6.2909  2565.1525 C.3      784 DA      0.0000
    931 O4'        4.8418    -5.5858  2565.0621 O.3      784 DA      0.0000
    932 C3'        6.5736    -6.1108  2566.5815 C.3      784 DA      0.0000
    933 O3'        7.6459    -5.1473  2566.6338 O.3      784 DA      0.0000
    934 C2'        5.3117    -5.6432  2567.3170 C.3      784 DA      0.0000
    935 C1'        4.7217    -4.7461  2566.2394 C.3      784 DA      0.0000
    936 N9         3.3169    -4.3932  2566.4678 N.ar     784 DA      0.0000
    937 C8         2.2335    -5.1967  2566.6835 C.ar     784 DA      0.0000
    938 N7         1.1072    -4.5396  2566.8485 N.ar     784 DA      0.0000
    939 C5         1.4745    -3.2096  2566.7083 C.ar     784 DA      0.0000
    940 C6         0.7163    -2.0194  2566.7563 C.ar     784 DA      0.0000
    941 N6        -0.5997    -1.9710  2566.9761 N.pl3    784 DA      0.0000
    942 N1         1.4268    -0.8681  2566.5665 N.ar     784 DA      0.0000
    943 C2         2.7620    -0.8944  2566.3487 C.ar     784 DA      0.0000
    944 N3         3.5398    -1.9748  2566.2905 N.ar     784 DA      0.0000
    945 C4         2.8239    -3.0985  2566.4773 C.ar     784 DA      0.0000
    946 H5'        5.3417    -7.7473  2563.7310 H        784 DA      0.0000
    947 H5''       6.8509    -8.2088  2564.5704 H        784 DA      0.0000
    948 H4'        6.7729    -5.8080  2564.4827 H        784 DA      0.0000
    949 H3'        6.9088    -7.0671  2566.9830 H        784 DA      0.0000
    950 H2'        4.6509    -6.4745  2567.5625 H        784 DA      0.0000
    951 H2''       5.5673    -5.0695  2568.2079 H        784 DA      0.0000
    952 H1'        5.3246    -3.8452  2566.1249 H        784 DA      0.0000
    953 H8         2.2968    -6.2744  2566.7156 H        784 DA      0.0000
    954 H2         3.2480     0.0597  2566.2074 H        784 DA      0.0000
    955 H61       -1.2320    -2.7527  2566.8787 H        784 DA      0.0000
    956 H62       -1.0825    -1.1006  2566.8045 H        784 DA      0.0000
    957 P          8.8257    -5.2064  2567.7753 P.3      785 DA      0.0000
    958 OP1       10.1646    -5.4012  2567.1082 O.co2    785 DA      0.0000
    959 OP2        8.3618    -6.3361  2568.6062 O.co2    785 DA      0.0000
    960 O5'        8.8665    -3.7025  2568.3061 O.3      785 DA      0.0000
    961 C5'        9.1871    -2.5832  2567.4818 C.3      785 DA      0.0000
    962 C4'        8.4242    -1.3785  2568.0041 C.3      785 DA      0.0000
    963 O4'        7.0464    -1.6233  2568.0323 O.3      785 DA      0.0000
    964 C3'        8.8124    -0.8430  2569.3714 C.3      785 DA      0.0000
    965 O3'        9.3324     0.4841  2569.2936 O.3      785 DA      0.0000
    966 C2'        7.5307    -0.9935  2570.2001 C.3      785 DA      0.0000
    967 C1'        6.4349    -0.9972  2569.2063 C.3      785 DA      0.0000
    968 N9         5.1871    -1.7350  2569.4744 N.ar     785 DA      0.0000
    969 C8         4.9671    -3.0862  2569.5896 C.ar     785 DA      0.0000
    970 N7         3.7077    -3.4125  2569.7589 N.ar     785 DA      0.0000
    971 C5         3.0411    -2.1919  2569.7219 C.ar     785 DA      0.0000
    972 C6         1.6612    -1.8617  2569.8423 C.ar     785 DA      0.0000
    973 N6         0.6754    -2.7293  2570.0339 N.pl3    785 DA      0.0000
    974 N1         1.3605    -0.5261  2569.7441 N.ar     785 DA      0.0000
    975 C2         2.3481     0.3965  2569.5551 C.ar     785 DA      0.0000
    976 N3         3.6501     0.1575  2569.4472 N.ar     785 DA      0.0000
    977 C4         3.9301    -1.1581  2569.5391 C.ar     785 DA      0.0000
    978 H5'        8.8946    -2.7873  2566.4517 H        785 DA      0.0000
    979 H5''      10.2585    -2.3878  2567.5277 H        785 DA      0.0000
    980 H4'        8.5860    -0.5698  2567.2914 H        785 DA      0.0000
    981 H3'        9.5786    -1.4926  2569.7946 H        785 DA      0.0000
    982 H2'        7.5437    -1.9284  2570.7604 H        785 DA      0.0000
    983 H2''       7.4201    -0.1485  2570.8797 H        785 DA      0.0000
    984 H1'        6.1838     0.0346  2568.9603 H        785 DA      0.0000
    985 H8         5.7617    -3.8163  2569.5447 H        785 DA      0.0000
    986 H2         2.0386     1.4289  2569.4859 H        785 DA      0.0000
    987 H61        0.8418    -3.6707  2570.3601 H        785 DA      0.0000
    988 H62       -0.2736    -2.4384  2569.8471 H        785 DA      0.0000
    989 P         10.4935     1.1019  2570.2498 P.3      786 DT      0.0000
    990 OP1       11.4891     1.9369  2569.4525 O.co2    786 DT      0.0000
    991 OP2       11.0852     0.0661  2571.0704 O.co2    786 DT      0.0000
    992 O5'        9.6649     2.2665  2571.0635 O.3      786 DT      0.0000
    993 C5'        8.7382     2.9540  2570.1184 C.3      786 DT      0.0000
    994 C4'        7.4648     3.1295  2570.9061 C.3      786 DT      0.0000
    995 O4'        6.7477     1.9308  2571.0981 O.3      786 DT      0.0000
    996 C3'        7.7269     3.6734  2572.3227 C.3      786 DT      0.0000
    997 O3'        7.5157     5.0731  2572.3244 O.3      786 DT      0.0000
    998 C2'        6.7801     2.8803  2573.2200 C.3      786 DT      0.0000
    999 C1'        5.8579     2.2484  2572.2553 C.3      786 DT      0.0000
   1000 N1         5.1610     1.0181  2572.5951 N.am     786 DT      0.0000
   1001 C2         3.7787     1.0963  2572.7330 C.2      786 DT      0.0000
   1002 O2         3.2186     2.1813  2572.6450 O.2      786 DT      0.0000
   1003 N3         3.0908    -0.0518  2572.9870 N.am     786 DT      0.0000
   1004 C4         3.7023    -1.2668  2573.1072 C.2      786 DT      0.0000
   1005 O4         2.9917    -2.2910  2573.3624 O.2      786 DT      0.0000
   1006 C5         5.1246    -1.3264  2572.9356 C.2      786 DT      0.0000
   1007 C7         5.8447    -2.6435  2573.0231 C.3      786 DT      0.0000
   1008 C6         5.7979    -0.1915  2572.6798 C.2      786 DT      0.0000
   1009 H5'        9.1418     3.9206  2569.8167 H        786 DT      0.0000
   1010 H5''       8.5585     2.3294  2569.2434 H        786 DT      0.0000
   1011 H4'        6.8245     3.8354  2570.3770 H        786 DT      0.0000
   1012 H3'        8.7578     3.4620  2572.6070 H        786 DT      0.0000
   1013 H2'        7.3222     2.1284  2573.7934 H        786 DT      0.0000
   1014 H2''       6.2357     3.5493  2573.8864 H        786 DT      0.0000
   1015 H1'        5.1237     2.9890  2571.9380 H        786 DT      0.0000
   1016 H3         2.0874    -0.0023  2573.0907 H        786 DT      0.0000
   1017 H6         6.8677    -0.2345  2572.5377 H        786 DT      0.0000
   1018 H71        5.1280    -3.4366  2573.2361 H        786 DT      0.0000
   1019 H72        6.3424    -2.8488  2572.0753 H        786 DT      0.0000
   1020 H73        6.5861    -2.5999  2573.8209 H        786 DT      0.0000
   1021 P          7.8460     6.1104  2573.4310 P.3      787 DT      0.0000
   1022 OP1        7.9810     7.5287  2572.8189 O.co2    787 DT      0.0000
   1023 OP2        9.1133     5.6585  2574.0610 O.co2    787 DT      0.0000
   1024 O5'        6.5095     6.1955  2574.3133 O.3      787 DT      0.0000
   1025 C5'        5.4159     6.8345  2573.6016 C.3      787 DT      0.0000
   1026 C4'        4.1363     6.4833  2574.2777 C.3      787 DT      0.0000
   1027 O4'        3.8369     5.0932  2574.2544 O.3      787 DT      0.0000
   1028 C3'        4.0506     6.9298  2575.7443 C.3      787 DT      0.0000
   1029 O3'        2.7828     7.4999  2576.0084 O.3      787 DT      0.0000
   1030 C2'        4.1791     5.5751  2576.4807 C.3      787 DT      0.0000
   1031 C1'        3.2669     4.7707  2575.5771 C.3      787 DT      0.0000
   1032 N1         3.3543     3.3530  2575.8748 N.am     787 DT      0.0000
   1033 C2         2.1826     2.6157  2575.9296 C.2      787 DT      0.0000
   1034 O2         1.1084     3.1886  2575.7412 O.2      787 DT      0.0000
   1035 N3         2.2724     1.2784  2576.1955 N.am     787 DT      0.0000
   1036 C4         3.4662     0.6583  2576.4026 C.2      787 DT      0.0000
   1037 O4         3.4725    -0.5861  2576.6259 O.2      787 DT      0.0000
   1038 C5         4.6655     1.4259  2576.3375 C.2      787 DT      0.0000
   1039 C7         6.0199     0.8140  2576.5474 C.3      787 DT      0.0000
   1040 C6         4.5590     2.7380  2576.0764 C.2      787 DT      0.0000
   1041 H5'        5.5525     7.9158  2573.6140 H        787 DT      0.0000
   1042 H5''       5.3940     6.4805  2572.5708 H        787 DT      0.0000
   1043 H4'        3.3375     6.9934  2573.7392 H        787 DT      0.0000
   1044 H3'        4.8611     7.6098  2576.0068 H        787 DT      0.0000
   1045 H2'        5.2017     5.1978  2576.4794 H        787 DT      0.0000
   1046 H2''       3.7805     5.6354  2577.4934 H        787 DT      0.0000
   1047 H1'        2.2375     5.1210  2575.6527 H        787 DT      0.0000
   1048 H3         1.4243     0.7317  2576.2399 H        787 DT      0.0000
   1049 H6         5.4598     3.3314  2576.0233 H        787 DT      0.0000
   1050 H71        5.9106    -0.2522  2576.7463 H        787 DT      0.0000
   1051 H72        6.6252     0.9561  2575.6521 H        787 DT      0.0000
   1052 H73        6.5078     1.2937  2577.3958 H        787 DT      0.0000
   1053 P          2.2475     8.8441  2576.6163 P.3      788 DC      0.0000
   1054 OP1        1.6336     9.7288  2575.5484 O.co2    788 DC      0.0000
   1055 OP2        3.3879     9.4211  2577.3513 O.co2    788 DC      0.0000
   1056 O5'        1.0040     8.1872  2577.4423 O.3      788 DC      0.0000
   1057 C5'        0.2878     7.4015  2576.4201 C.3      788 DC      0.0000
   1058 C4'       -0.8423     6.6984  2577.1166 C.3      788 DC      0.0000
   1059 O4'       -0.5675     5.3543  2577.3635 O.3      788 DC      0.0000
   1060 C3'       -1.3157     7.3559  2578.4081 C.3      788 DC      0.0000
   1061 O3'       -2.7027     7.6568  2578.3284 O.3      788 DC      0.0000
   1062 C2'       -0.8536     6.3419  2579.4568 C.3      788 DC      0.0000
   1063 C1'       -0.8851     5.0393  2578.7604 C.3      788 DC      0.0000
   1064 N1         0.1718     4.0788  2579.0925 N.am     788 DC      0.0000
   1065 C2        -0.2489     2.7756  2579.3483 C.2      788 DC      0.0000
   1066 O2        -1.4469     2.4761  2579.3528 O.2      788 DC      0.0000
   1067 N3         0.7187     1.8407  2579.6221 N.2      788 DC      0.0000
   1068 C4         2.0439     2.1635  2579.6122 C.2      788 DC      0.0000
   1069 N4         2.9036     1.1893  2579.8891 N.pl3    788 DC      0.0000
   1070 C5         2.4564     3.4853  2579.3342 C.2      788 DC      0.0000
   1071 C6         1.4939     4.3923  2579.0694 C.2      788 DC      0.0000
   1072 H5'       -0.1032     8.0624  2575.6464 H        788 DC      0.0000
   1073 H5''       0.9620     6.6693  2575.9759 H        788 DC      0.0000
   1074 H4'       -1.6891     6.7198  2576.4306 H        788 DC      0.0000
   1075 H3'       -0.7634     8.2846  2578.5513 H        788 DC      0.0000
   1076 H2'        0.1568     6.5724  2579.7947 H        788 DC      0.0000
   1077 H2''      -1.5414     6.3341  2580.3024 H        788 DC      0.0000
   1078 H1'       -1.8695     4.5784  2578.8414 H        788 DC      0.0000
   1079 H5         3.5012     3.7590  2579.3336 H        788 DC      0.0000
   1080 H6         1.7844     5.4047  2578.8304 H        788 DC      0.0000
   1081 H41        2.5653     0.2588  2580.0883 H        788 DC      0.0000
   1082 H42        3.8955     1.3793  2579.9004 H        788 DC      0.0000
   1083 P         -3.5192     8.6865  2579.2804 P.3      789 DA      0.0000
   1084 OP1       -4.7185     9.1680  2578.4867 O.co2    789 DA      0.0000
   1085 OP2       -2.6109     9.7989  2579.6260 O.co2    789 DA      0.0000
   1086 O5'       -3.9509     7.7703  2580.5774 O.3      789 DA      0.0000
   1087 C5'       -4.6475     6.5210  2580.2822 C.3      789 DA      0.0000
   1088 C4'       -4.8877     5.7481  2581.5375 C.3      789 DA      0.0000
   1089 O4'       -3.9651     4.6817  2581.7796 O.3      789 DA      0.0000
   1090 C3'       -4.7987     6.5565  2582.8427 C.3      789 DA      0.0000
   1091 O3'       -5.4779     5.8345  2583.8726 O.3      789 DA      0.0000
   1092 C2'       -3.2725     6.5165  2583.0573 C.3      789 DA      0.0000
   1093 C1'       -3.1102     5.0037  2582.8740 C.3      789 DA      0.0000
   1094 N9        -1.6962     4.6821  2582.7797 N.ar     789 DA      0.0000
   1095 C8        -0.6036     5.4961  2582.6639 C.ar     789 DA      0.0000
   1096 N7         0.5593     4.8697  2582.6453 N.ar     789 DA      0.0000
   1097 C5         0.2003     3.5335  2582.7528 C.ar     789 DA      0.0000
   1098 C6         0.9692     2.3440  2582.7873 C.ar     789 DA      0.0000
   1099 N6         2.2866     2.3009  2582.7021 N.pl3    789 DA      0.0000
   1100 N1         0.2691     1.1791  2582.9199 N.ar     789 DA      0.0000
   1101 C2        -1.0981     1.1773  2583.0001 C.ar     789 DA      0.0000
   1102 N3        -1.8867     2.2490  2582.9703 N.ar     789 DA      0.0000
   1103 C4        -1.1750     3.3962  2582.8472 C.ar     789 DA      0.0000
   1104 H5'       -5.6042     6.7464  2579.8110 H        789 DA      0.0000
   1105 H5''      -4.0422     5.9230  2579.6009 H        789 DA      0.0000
   1106 H4'       -5.8874     5.3179  2581.4786 H        789 DA      0.0000
   1107 H3'       -5.1762     7.5727  2582.7291 H        789 DA      0.0000
   1108 H2'       -2.7289     7.0899  2582.3065 H        789 DA      0.0000
   1109 H2''      -3.0039     6.8265  2584.0672 H        789 DA      0.0000
   1110 H1'       -3.5063     4.5142  2583.7637 H        789 DA      0.0000
   1111 H8        -0.6851     6.5707  2582.5929 H        789 DA      0.0000
   1112 H2        -1.5814     0.2164  2583.0966 H        789 DA      0.0000
   1113 H61        2.9804     1.5893  2582.8821 H        789 DA      0.0000
   1114 H62        2.6891     3.1721  2582.3873 H        789 DA      0.0000
   1115 P         -7.0711     5.8823  2584.0131 P.3      790 DC      0.0000
   1116 OP1       -7.7575     6.3292  2582.7680 O.co2    790 DC      0.0000
   1117 OP2       -7.2603     6.8374  2585.1560 O.co2    790 DC      0.0000
   1118 O5'       -7.4575     4.3706  2584.2963 O.3      790 DC      0.0000
   1119 C5'       -7.5880     3.4059  2583.2086 C.3      790 DC      0.0000
   1120 C4'       -7.2174     2.0962  2583.9135 C.3      790 DC      0.0000
   1121 O4'       -5.8451     2.1607  2584.2255 O.3      790 DC      0.0000
   1122 C3'       -7.9673     1.8686  2585.2234 C.3      790 DC      0.0000
   1123 O3'       -8.6002     0.5707  2585.2913 O.3      790 DC      0.0000
   1124 C2'       -6.8978     2.0802  2586.3056 C.3      790 DC      0.0000
   1125 C1'       -5.6658     1.6327  2585.6294 C.3      790 DC      0.0000
   1126 N1        -4.3595     2.1827  2585.9823 N.am     790 DC      0.0000
   1127 C2        -3.3061     1.2706  2585.9554 C.2      790 DC      0.0000
   1128 O2        -3.4715     0.0750  2585.7485 O.2      790 DC      0.0000
   1129 N3        -2.0585     1.7492  2586.2085 N.2      790 DC      0.0000
   1130 C4        -1.8161     3.0618  2586.4419 C.2      790 DC      0.0000
   1131 N4        -0.5515     3.4096  2586.6728 N.pl3    790 DC      0.0000
   1132 C5        -2.8976     3.9851  2586.4484 C.2      790 DC      0.0000
   1133 C6        -4.1259     3.5055  2586.1990 C.2      790 DC      0.0000
   1134 H5'       -8.6073     3.3759  2582.8237 H        790 DC      0.0000
   1135 H5''      -6.8804     3.6275  2582.4095 H        790 DC      0.0000
   1136 H4'       -7.3981     1.2578  2583.2408 H        790 DC      0.0000
   1137 H3'       -8.7317     2.6384  2585.3293 H        790 DC      0.0000
   1138 H2'       -6.8304     3.1296  2586.5926 H        790 DC      0.0000
   1139 H2''      -7.1049     1.4575  2587.1759 H        790 DC      0.0000
   1140 H1'       -5.6214     0.5437  2585.6162 H        790 DC      0.0000
   1141 H5        -2.7363     5.0344  2586.6469 H        790 DC      0.0000
   1142 H6        -4.9580     4.1933  2586.1693 H        790 DC      0.0000
   1143 H41        0.1752     2.7082  2586.6617 H        790 DC      0.0000
   1144 H42       -0.3192     4.3747  2586.8589 H        790 DC      0.0000
   1145 P          8.2710    -1.9070  2588.2508 P.3      790 DG      0.0000
   1146 OP1        9.7315    -2.1751  2588.4296 O.co2    790 DG      0.0000
   1147 OP2        7.9819    -0.8779  2587.1660 O.co2    790 DG      0.0000
   1148 O5'        7.4758    -3.3332  2588.0436 O.3      790 DG      0.0000
   1149 C5'        6.6560    -3.8595  2589.1394 C.3      790 DG      0.0000
   1150 C4'        5.4178    -4.4888  2588.5051 C.3      790 DG      0.0000
   1151 O4'        4.3565    -3.5783  2588.4093 O.3      790 DG      0.0000
   1152 C3'        5.6390    -5.0394  2587.0987 C.3      790 DG      0.0000
   1153 O3'        4.9576    -6.2870  2586.8318 O.3      790 DG      0.0000
   1154 C2'        5.1163    -3.9070  2586.1965 C.3      790 DG      0.0000
   1155 C1'        3.9415    -3.4065  2587.0203 C.3      790 DG      0.0000
   1156 N9         3.6695    -1.9850  2586.7470 N.ar     790 DG      0.0000
   1157 C8         4.5783    -0.9655  2586.5903 C.ar     790 DG      0.0000
   1158 N7         4.0340     0.2020  2586.3719 N.ar     790 DG      0.0000
   1159 C5         2.6694    -0.0609  2586.3967 C.ar     790 DG      0.0000
   1160 C6         1.5467     0.7949  2586.2402 C.2      790 DG      0.0000
   1161 O6         1.5703     2.0182  2586.0434 O.2      790 DG      0.0000
   1162 N1         0.3336     0.1574  2586.3271 N.am     790 DG      0.0000
   1163 C2         0.2213    -1.1754  2586.5478 C.2      790 DG      0.0000
   1164 N2        -1.0187    -1.6527  2586.6112 N.pl3    790 DG      0.0000
   1165 N3         1.2442    -2.0244  2586.7055 N.2      790 DG      0.0000
   1166 C4         2.4341    -1.3982  2586.6223 C.ar     790 DG      0.0000
   1167 H5'        7.2143    -4.6113  2589.6971 H        790 DG      0.0000
   1168 H5''       6.3603    -3.0480  2589.8043 H        790 DG      0.0000
   1169 H4'        5.0965    -5.3131  2589.1418 H        790 DG      0.0000
   1170 H3'        6.7076    -5.1702  2586.9283 H        790 DG      0.0000
   1171 H2'        5.8665    -3.1292  2586.0538 H        790 DG      0.0000
   1172 H2''       4.7781    -4.3000  2585.2377 H        790 DG      0.0000
   1173 H1'        3.0547    -4.0061  2586.8150 H        790 DG      0.0000
   1174 H8         5.6464    -1.1162  2586.6431 H        790 DG      0.0000
   1175 H1        -0.5093     0.7037  2586.2224 H        790 DG      0.0000
   1176 H21       -1.8058    -1.0304  2586.4961 H        790 DG      0.0000
   1177 H22       -1.1731    -2.6374  2586.7743 H        790 DG      0.0000
   1178 P          4.5227    -6.5274  2585.3083 P.3      789 DT      0.0000
   1179 OP1        4.4593    -7.9794  2584.9174 O.co2    789 DT      0.0000
   1180 OP2        5.6291    -5.8301  2584.6077 O.co2    789 DT      0.0000
   1181 O5'        3.0724    -5.8590  2585.1774 O.3      789 DT      0.0000
   1182 C5'        1.9218    -6.7229  2585.4450 C.3      789 DT      0.0000
   1183 C4'        0.7295    -6.1796  2584.6880 C.3      789 DT      0.0000
   1184 O4'        0.6913    -4.7639  2584.6607 O.3      789 DT      0.0000
   1185 C3'        0.6949    -6.6220  2583.2333 C.3      789 DT      0.0000
   1186 O3'       -0.6302    -6.9128  2582.7381 O.3      789 DT      0.0000
   1187 C2'        1.3220    -5.4505  2582.5104 C.3      789 DT      0.0000
   1188 C1'        0.6864    -4.3103  2583.2885 C.3      789 DT      0.0000
   1189 N1         1.5748    -3.1472  2583.1372 N.am     789 DT      0.0000
   1190 C2         0.9741    -1.8970  2583.2440 C.2      789 DT      0.0000
   1191 O2        -0.2338    -1.8019  2583.4337 O.2      789 DT      0.0000
   1192 N3         1.7845    -0.8029  2583.1238 N.am     789 DT      0.0000
   1193 C4         3.1247    -0.9188  2582.9062 C.2      789 DT      0.0000
   1194 O4         3.7990     0.1594  2582.8087 O.2      789 DT      0.0000
   1195 C5         3.7111    -2.2122  2582.7998 C.2      789 DT      0.0000
   1196 C7         5.1888    -2.3520  2582.5709 C.3      789 DT      0.0000
   1197 C6         2.9148    -3.2774  2582.9216 C.2      789 DT      0.0000
   1198 H5'        2.1382    -7.7377  2585.1113 H        789 DT      0.0000
   1199 H5''       1.7068    -6.7265  2586.5136 H        789 DT      0.0000
   1200 H4'       -0.1773    -6.5370  2585.1759 H        789 DT      0.0000
   1201 H3'        1.3266    -7.5015  2583.1093 H        789 DT      0.0000
   1202 H2'        2.4082    -5.4500  2582.6019 H        789 DT      0.0000
   1203 H2''       1.0174    -5.4278  2581.4640 H        789 DT      0.0000
   1204 H1'       -0.3231    -4.0956  2582.9379 H        789 DT      0.0000
   1205 H3         1.3780     0.1187  2583.1985 H        789 DT      0.0000
   1206 H6         3.3427    -4.2662  2582.8475 H        789 DT      0.0000
   1207 H71        5.6415    -1.3629  2582.5022 H        789 DT      0.0000
   1208 H72        5.6348    -2.8985  2583.4018 H        789 DT      0.0000
   1209 H73        5.3628    -2.8965  2581.6428 H        789 DT      0.0000
   1210 P         -0.5504    -8.3764  2581.9598 P.3      788 DG      0.0000
   1211 OP1       -0.9181    -9.5331  2582.8310 O.co2    788 DG      0.0000
   1212 OP2        0.8766    -8.3313  2581.5542 O.co2    788 DG      0.0000
   1213 O5'       -1.7138    -8.1947  2580.8789 O.3      788 DG      0.0000
   1214 C5'       -3.0922    -8.3494  2581.3024 C.3      788 DG      0.0000
   1215 C4'       -3.7832    -7.0676  2580.8547 C.3      788 DG      0.0000
   1216 O4'       -2.9492    -5.9588  2581.1254 O.3      788 DG      0.0000
   1217 C3'       -4.1323    -7.0262  2579.3669 C.3      788 DG      0.0000
   1218 O3'       -5.5134    -6.7908  2579.1584 O.3      788 DG      0.0000
   1219 C2'       -3.1961    -5.9791  2578.7902 C.3      788 DG      0.0000
   1220 C1'       -2.9256    -5.0839  2579.9764 C.3      788 DG      0.0000
   1221 N9        -1.6193    -4.4315  2579.8528 N.ar     788 DG      0.0000
   1222 C8        -0.3929    -5.0122  2579.6939 C.ar     788 DG      0.0000
   1223 N7         0.5924    -4.1512  2579.6159 N.ar     788 DG      0.0000
   1224 C5        -0.0287    -2.9133  2579.7534 C.ar     788 DG      0.0000
   1225 C6         0.4875    -1.5906  2579.7629 C.2      788 DG      0.0000
   1226 O6         1.6629    -1.2535  2579.6638 O.2      788 DG      0.0000
   1227 N1        -0.4555    -0.6136  2579.9118 N.am     788 DG      0.0000
   1228 C2        -1.7920    -0.9029  2580.0447 C.2      788 DG      0.0000
   1229 N2        -2.6042     0.1458  2580.1804 N.pl3    788 DG      0.0000
   1230 N3        -2.3421    -2.1213  2580.0490 N.2      788 DG      0.0000
   1231 C4        -1.3956    -3.0790  2579.8983 C.ar     788 DG      0.0000
   1232 H5'       -3.5457    -9.2173  2580.8237 H        788 DG      0.0000
   1233 H5''      -3.1446    -8.4469  2582.3867 H        788 DG      0.0000
   1234 H4'       -4.7035    -6.9543  2581.4277 H        788 DG      0.0000
   1235 H3'       -3.8791    -7.9913  2578.9284 H        788 DG      0.0000
   1236 H2'       -2.2760    -6.4342  2578.4239 H        788 DG      0.0000
   1237 H2''      -3.6900    -5.4211  2577.9947 H        788 DG      0.0000
   1238 H1'       -3.7108    -4.3329  2580.0634 H        788 DG      0.0000
   1239 H8        -0.2487    -6.0810  2579.6378 H        788 DG      0.0000
   1240 H1        -0.1607     0.3524  2579.9247 H        788 DG      0.0000
   1241 H21       -2.2246     1.0817  2580.1814 H        788 DG      0.0000
   1242 H22       -3.5989     0.0042  2580.2822 H        788 DG      0.0000
   1243 P         -6.3565    -5.7731  2578.2921 P.3      787 DA      0.0000
   1244 OP1       -7.5939    -5.3131  2579.0735 O.co2    787 DA      0.0000
   1245 OP2       -6.7547    -6.5242  2577.0994 O.co2    787 DA      0.0000
   1246 O5'       -5.4278    -4.4461  2578.1173 O.3      787 DA      0.0000
   1247 C5'       -5.5561    -3.5364  2579.2738 C.3      787 DA      0.0000
   1248 C4'       -6.1387    -2.2487  2578.7460 C.3      787 DA      0.0000
   1249 O4'       -5.1587    -1.2666  2578.5237 O.3      787 DA      0.0000
   1250 C3'       -6.8515    -2.4226  2577.4055 C.3      787 DA      0.0000
   1251 O3'       -8.0487    -1.6862  2577.3303 O.3      787 DA      0.0000
   1252 C2'       -5.7552    -2.0914  2576.4089 C.3      787 DA      0.0000
   1253 C1'       -4.7727    -1.2137  2577.1328 C.3      787 DA      0.0000
   1254 N9        -3.3843    -1.6507  2576.9073 N.ar     787 DA      0.0000
   1255 C8        -2.8971    -2.9263  2576.7209 C.ar     787 DA      0.0000
   1256 N7        -1.6001    -2.9874  2576.5250 N.ar     787 DA      0.0000
   1257 C5        -1.2025    -1.6591  2576.6119 C.ar     787 DA      0.0000
   1258 C6         0.0721    -1.0551  2576.5062 C.ar     787 DA      0.0000
   1259 N6         1.1894    -1.7278  2576.2937 N.pl3    787 DA      0.0000
   1260 N1         0.1043     0.3006  2576.6299 N.ar     787 DA      0.0000
   1261 C2        -1.0340     1.0212  2576.8545 C.ar     787 DA      0.0000
   1262 N3        -2.2601     0.5153  2576.9703 N.ar     787 DA      0.0000
   1263 C4        -2.2793    -0.8327  2576.8342 C.ar     787 DA      0.0000
   1264 H5'       -6.2195    -3.9705  2580.0219 H        787 DA      0.0000
   1265 H5''      -4.5751    -3.3493  2579.7105 H        787 DA      0.0000
   1266 H4'       -6.8548    -1.8669  2579.4737 H        787 DA      0.0000
   1267 H3'       -7.0996    -3.4780  2577.2924 H        787 DA      0.0000
   1268 H2'       -6.1724    -1.5625  2575.5520 H        787 DA      0.0000
   1269 H2''      -5.2638    -3.0065  2576.0784 H        787 DA      0.0000
   1270 H1'       -4.8831    -0.1903  2576.7746 H        787 DA      0.0000
   1271 H8        -3.5290    -3.8021  2576.7348 H        787 DA      0.0000
   1272 H2        -0.9307     2.0924  2576.9457 H        787 DA      0.0000
   1273 H61        2.0810    -1.3730  2576.6092 H        787 DA      0.0000
   1274 H62        1.1513    -2.6122  2575.8075 H        787 DA      0.0000
   1275 P         -8.7015    -0.8693  2576.1457 P.3      786 DA      0.0000
   1276 OP1       -9.8947    -0.0153  2576.6656 O.co2    786 DA      0.0000
   1277 OP2       -9.2231    -1.9156  2575.2120 O.co2    786 DA      0.0000
   1278 O5'       -7.6289     0.1694  2575.6430 O.3      786 DA      0.0000
   1279 C5'       -7.6813     1.5371  2576.0988 C.3      786 DA      0.0000
   1280 C4'       -6.5652     2.2797  2575.3969 C.3      786 DA      0.0000
   1281 O4'       -5.3765     1.5517  2575.2762 O.3      786 DA      0.0000
   1282 C3'       -6.9346     2.7459  2573.9894 C.3      786 DA      0.0000
   1283 O3'       -6.9807     4.1849  2573.9580 O.3      786 DA      0.0000
   1284 C2'       -5.9248     2.0308  2573.0898 C.3      786 DA      0.0000
   1285 C1'       -4.7400     1.8408  2573.9876 C.3      786 DA      0.0000
   1286 N9        -3.8714     0.7072  2573.6880 N.ar     786 DA      0.0000
   1287 C8        -4.2012    -0.6181  2573.4933 C.ar     786 DA      0.0000
   1288 N7        -3.1635    -1.3981  2573.2878 N.ar     786 DA      0.0000
   1289 C5        -2.0796    -0.5452  2573.3624 C.ar     786 DA      0.0000
   1290 C6        -0.6911    -0.7702  2573.2289 C.ar     786 DA      0.0000
   1291 N6        -0.1541    -1.9619  2572.9857 N.pl3    786 DA      0.0000
   1292 N1         0.0978     0.3421  2573.3777 N.ar     786 DA      0.0000
   1293 C2        -0.4172     1.5608  2573.6302 C.ar     786 DA      0.0000
   1294 N3        -1.7150     1.8481  2573.7691 N.ar     786 DA      0.0000
   1295 C4        -2.4897     0.7503  2573.6219 C.ar     786 DA      0.0000
   1296 H5'       -8.6439     1.9801  2575.8437 H        786 DA      0.0000
   1297 H5''      -7.5302     1.5745  2577.1777 H        786 DA      0.0000
   1298 H4'       -6.3441     3.1690  2575.9870 H        786 DA      0.0000
   1299 H3'       -7.9293     2.3672  2573.7544 H        786 DA      0.0000
   1300 H2'       -6.3152     1.0715  2572.7499 H        786 DA      0.0000
   1301 H2''      -5.6614     2.6583  2572.2385 H        786 DA      0.0000
   1302 H1'       -4.1578     2.7603  2574.0487 H        786 DA      0.0000
   1303 H8        -5.2183    -0.9812  2573.5082 H        786 DA      0.0000
   1304 H2         0.2809     2.3789  2573.7293 H        786 DA      0.0000
   1305 H61        0.8060    -2.0707  2573.2797 H        786 DA      0.0000
   1306 H62       -0.6700    -2.7061  2572.5384 H        786 DA      0.0000
   1307 P         -7.3384     4.9237  2572.5730 P.3      785 DT      0.0000
   1308 OP1       -7.6905     6.3783  2572.6311 O.co2    785 DT      0.0000
   1309 OP2       -8.4162     4.0235  2572.0604 O.co2    785 DT      0.0000
   1310 O5'       -5.8299     4.8361  2571.8698 O.3      785 DT      0.0000
   1311 C5'       -4.8198     5.1287  2572.8822 C.3      785 DT      0.0000
   1312 C4'       -3.5697     5.5834  2572.1992 C.3      785 DT      0.0000
   1313 O4'       -2.6304     4.5661  2572.0188 O.3      785 DT      0.0000
   1314 C3'       -3.8009     6.2211  2570.8380 C.3      785 DT      0.0000
   1315 O3'       -2.9154     7.3154  2570.5707 O.3      785 DT      0.0000
   1316 C2'       -3.6041     4.9894  2569.9446 C.3      785 DT      0.0000
   1317 C1'       -2.3977     4.3363  2570.5846 C.3      785 DT      0.0000
   1318 N1        -2.3931     2.8793  2570.3547 N.am     785 DT      0.0000
   1319 C2        -1.1639     2.2554  2570.2330 C.2      785 DT      0.0000
   1320 O2        -0.1154     2.9012  2570.2698 O.2      785 DT      0.0000
   1321 N3        -1.1470     0.8973  2570.0656 N.am     785 DT      0.0000
   1322 C4        -2.2916     0.1643  2570.0171 C.2      785 DT      0.0000
   1323 O4        -2.1826    -1.0845  2569.8316 O.2      785 DT      0.0000
   1324 C5        -3.5444     0.8227  2570.1655 C.2      785 DT      0.0000
   1325 C7        -4.8357     0.0414  2570.1134 C.3      785 DT      0.0000
   1326 C6        -3.5437     2.1486  2570.3385 C.2      785 DT      0.0000
   1327 H5'       -5.1821     5.9151  2573.5442 H        785 DT      0.0000
   1328 H5''      -4.6128     4.2293  2573.4622 H        785 DT      0.0000
   1329 H4'       -3.1098     6.3389  2572.8362 H        785 DT      0.0000
   1330 H3'       -4.8337     6.5620  2570.7659 H        785 DT      0.0000
   1331 H2'       -4.4739     4.3332  2569.9752 H        785 DT      0.0000
   1332 H2''      -3.3824     5.2879  2568.9200 H        785 DT      0.0000
   1333 H1'       -1.4682     4.7975  2570.2507 H        785 DT      0.0000
   1334 H3        -0.2585     0.4254  2569.9755 H        785 DT      0.0000
   1335 H6        -4.4870     2.6580  2570.4699 H        785 DT      0.0000
   1336 H71       -5.2537     0.0959  2569.1082 H        785 DT      0.0000
   1337 H72       -5.5449     0.4643  2570.8250 H        785 DT      0.0000
   1338 H73       -4.6409    -0.9999  2570.3699 H        785 DT      0.0000
   1339 P         -3.0397     7.9781  2569.0808 P.3      784 DT      0.0000
   1340 OP1       -3.5646     9.4074  2569.2287 O.co2    784 DT      0.0000
   1341 OP2       -4.0785     7.1250  2568.4109 O.co2    784 DT      0.0000
   1342 O5'       -1.6342     7.9339  2568.4287 O.3      784 DT      0.0000
   1343 C5'       -0.4219     7.9958  2569.1801 C.3      784 DT      0.0000
   1344 C4'        0.6320     7.2439  2568.4321 C.3      784 DT      0.0000
   1345 O4'        0.5423     5.8459  2568.3751 O.3      784 DT      0.0000
   1346 C3'        0.8933     7.6521  2566.9661 C.3      784 DT      0.0000
   1347 O3'        2.3048     7.4427  2566.8623 O.3      784 DT      0.0000
   1348 C2'        0.0951     6.5871  2566.2023 C.3      784 DT      0.0000
   1349 C1'        0.5968     5.3864  2566.9780 C.3      784 DT      0.0000
   1350 N1        -0.2158     4.1712  2566.8719 N.am     784 DT      0.0000
   1351 C2         0.5013     2.9672  2566.8712 C.2      784 DT      0.0000
   1352 O2         1.7333     2.9605  2566.9143 O.2      784 DT      0.0000
   1353 N3        -0.2246     1.8122  2566.8178 N.am     784 DT      0.0000
   1354 C4        -1.5865     1.7985  2566.7581 C.2      784 DT      0.0000
   1355 O4        -2.1685     0.6739  2566.6957 O.2      784 DT      0.0000
   1356 C5        -2.2889     3.0344  2566.7663 C.2      784 DT      0.0000
   1357 C7        -3.8021     3.0340  2566.7049 C.3      784 DT      0.0000
   1358 C6        -1.5748     4.1618  2566.8328 C.2      784 DT      0.0000
   1359 H5'       -0.1165     9.0350  2569.3023 H        784 DT      0.0000
   1360 H5''      -0.5730     7.5402  2570.1587 H        784 DT      0.0000
   1361 H4'        1.5631     7.4516  2568.9594 H        784 DT      0.0000
   1362 H3'        0.5867     8.6728  2566.7374 H        784 DT      0.0000
   1363 H2'        0.3633     6.5428  2565.1467 H        784 DT      0.0000
   1364 H2''      -0.9781     6.7248  2566.3339 H        784 DT      0.0000
   1365 H1'        1.6278     5.1688  2566.6990 H        784 DT      0.0000
   1366 H3         0.2682     0.9306  2566.8227 H        784 DT      0.0000
   1367 H6        -2.0994     5.1055  2566.8565 H        784 DT      0.0000
   1368 H71       -4.1640     2.0070  2566.6561 H        784 DT      0.0000
   1369 H72       -4.1296     3.5769  2565.8183 H        784 DT      0.0000
   1370 H73       -4.2020     3.5181  2567.5958 H        784 DT      0.0000
   1371 P          3.2355     7.9228  2565.7161 P.3      783 DC      0.0000
   1372 OP1        4.4593     8.6096  2566.3252 O.co2    783 DC      0.0000
   1373 OP2        2.4375     8.9185  2564.9342 O.co2    783 DC      0.0000
   1374 O5'        3.5766     6.5117  2564.9767 O.3      783 DC      0.0000
   1375 C5'        4.5097     5.6447  2565.7012 C.3      783 DC      0.0000
   1376 C4'        5.3160     4.9261  2564.6507 C.3      783 DC      0.0000
   1377 O4'        4.8342     3.6253  2564.4054 O.3      783 DC      0.0000
   1378 C3'        5.3712     5.6153  2563.2862 C.3      783 DC      0.0000
   1379 O3'        6.5991     5.4357  2562.5770 O.3      783 DC      0.0000
   1380 C2'        4.1506     4.9867  2562.6001 C.3      783 DC      0.0000
   1381 C1'        4.1641     3.5604  2563.1467 C.3      783 DC      0.0000
   1382 N1         2.7594     3.1035  2563.2645 N.am     783 DC      0.0000
   1383 C2         2.5404     1.7267  2563.2817 C.2      783 DC      0.0000
   1384 O2         3.4840     0.9272  2563.2131 O.2      783 DC      0.0000
   1385 N3         1.2440     1.3000  2563.3850 N.2      783 DC      0.0000
   1386 C4         0.2012     2.1682  2563.4557 C.2      783 DC      0.0000
   1387 N4        -1.0458     1.7031  2563.5577 N.pl3    783 DC      0.0000
   1388 C5         0.4525     3.5684  2563.4306 C.2      783 DC      0.0000
   1389 C6         1.7264     3.9867  2563.3370 C.2      783 DC      0.0000
   1390 H5'        5.1637     6.2412  2566.3371 H        783 DC      0.0000
   1391 H5''       3.9575     4.9245  2566.3051 H        783 DC      0.0000
   1392 H4'        6.3378     4.8376  2565.0194 H        783 DC      0.0000
   1393 H3'        5.1922     6.6820  2563.4204 H        783 DC      0.0000
   1394 H2'        4.2608     4.9942  2561.5157 H        783 DC      0.0000
   1395 H2''       3.2368     5.5020  2562.8961 H        783 DC      0.0000
   1396 H1'        4.7117     2.9073  2562.4673 H        783 DC      0.0000
   1397 H5        -0.3602     4.2776  2563.4854 H        783 DC      0.0000
   1398 H6         1.9347     5.0464  2563.3189 H        783 DC      0.0000
   1399 H41       -1.2133     0.7073  2563.5783 H        783 DC      0.0000
   1400 H42       -1.8219     2.3470  2563.6140 H        783 DC      0.0000
   1401 P          6.7544     5.2610  2560.9449 P.3      782 DA      0.0000
   1402 OP1        8.1594     5.6671  2560.5555 O.co2    782 DA      0.0000
   1403 OP2        5.6768     6.1145  2560.3749 O.co2    782 DA      0.0000
   1404 O5'        6.6303     3.6780  2560.7794 O.3      782 DA      0.0000
   1405 C5'        7.7608     2.8431  2561.2448 C.3      782 DA      0.0000
   1406 C4'        7.6179     1.6111  2560.3676 C.3      782 DA      0.0000
   1407 O4'        6.3645     0.9691  2560.6349 O.3      782 DA      0.0000
   1408 C3'        7.5756     1.9332  2558.8632 C.3      782 DA      0.0000
   1409 O3'        7.8201     0.7798  2558.0741 O.3      782 DA      0.0000
   1410 C2'        6.0791     2.2433  2558.6757 C.3      782 DA      0.0000
   1411 C1'        5.5866     0.9783  2559.4304 C.3      782 DA      0.0000
   1412 N9         4.1482     1.1768  2559.5758 N.ar     782 DA      0.0000
   1413 C8         3.4918     2.3850  2559.6486 C.ar     782 DA      0.0000
   1414 N7         2.1930     2.2647  2559.7633 N.ar     782 DA      0.0000
   1415 C5         1.9892     0.8732  2559.7569 C.ar     782 DA      0.0000
   1416 C6         0.7964     0.1055  2559.8568 C.ar     782 DA      0.0000
   1417 N6        -0.4226     0.6388  2559.9797 N.pl3    782 DA      0.0000
   1418 N1         0.9900    -1.2426  2559.8217 N.ar     782 DA      0.0000
   1419 C2         2.2269    -1.7844  2559.7028 C.ar     782 DA      0.0000
   1420 N3         3.3855    -1.1252  2559.6113 N.ar     782 DA      0.0000
   1421 C4         3.1820     0.2035  2559.6389 C.ar     782 DA      0.0000
   1422 H5'        8.7164     3.3403  2561.0781 H        782 DA      0.0000
   1423 H5''       7.6402     2.5832  2562.2965 H        782 DA      0.0000
   1424 H4'        8.4350     0.9191  2560.5715 H        782 DA      0.0000
   1425 H3'        8.2171     2.7722  2558.5935 H        782 DA      0.0000
   1426 H2'        5.7734     3.1721  2559.1573 H        782 DA      0.0000
   1427 H2''       5.7923     2.2219  2557.6243 H        782 DA      0.0000
   1428 H1'        5.7883     0.0832  2558.8419 H        782 DA      0.0000
   1429 H8         3.9985     3.3382  2559.6146 H        782 DA      0.0000
   1430 H2         2.2816    -2.8627  2559.6796 H        782 DA      0.0000
   1431 H61       -0.5346     1.6422  2560.0044 H        782 DA      0.0000
   1432 H62       -1.2319     0.0385  2560.0478 H        782 DA      0.0000
   1433 P          8.9245     0.7958  2556.9332 P.3      781 DC      0.0000
   1434 OP1       10.1964     0.5080  2557.7135 O.co2    781 DC      0.0000
   1435 OP2        8.9702     2.0702  2556.2076 O.co2    781 DC      0.0000
   1436 O5'        8.3691    -0.4057  2555.9573 O.3      781 DC      0.0000
   1437 C5'        8.0913    -1.6949  2556.6263 C.3      781 DC      0.0000
   1438 C4'        6.8803    -2.3163  2555.9823 C.3      781 DC      0.0000
   1439 O4'        5.6545    -1.9775  2556.6195 O.3      781 DC      0.0000
   1440 C3'        6.7190    -1.9210  2554.5045 C.3      781 DC      0.0000
   1441 O3'        6.1479    -2.9398  2553.6932 O.3      781 DC      0.0000
   1442 C2'        5.6843    -0.7600  2554.6701 C.3      781 DC      0.0000
   1443 C1'        4.7306    -1.6336  2555.5657 C.3      781 DC      0.0000
   1444 N1         3.5450    -0.8526  2555.8036 N.am     781 DC      0.0000
   1445 C2         2.3703    -1.5153  2556.1208 C.2      781 DC      0.0000
   1446 O2         2.1592    -2.7252  2556.2612 O.2      781 DC      0.0000
   1447 N3         1.2442    -0.7654  2556.3190 N.2      781 DC      0.0000
   1448 C4         1.2515     0.5974  2556.2030 C.2      781 DC      0.0000
   1449 N4         0.1238     1.2924  2556.4191 N.pl3    781 DC      0.0000
   1450 C5         2.4643     1.2632  2555.8734 C.2      781 DC      0.0000
   1451 C6         3.5523     0.5081  2555.6817 C.2      781 DC      0.0000
   1452 H5'        8.9485    -2.3590  2556.5149 H        781 DC      0.0000
   1453 H5''       7.8960    -1.5236  2557.6849 H        781 DC      0.0000
   1454 H4'        6.9942    -3.3993  2556.0291 H        781 DC      0.0000
   1455 H3'        7.6580    -1.5593  2554.0855 H        781 DC      0.0000
   1456 H2'        6.0882     0.1104  2555.1873 H        781 DC      0.0000
   1457 H2''       5.2190    -0.4908  2553.7219 H        781 DC      0.0000
   1458 H1'        4.4587    -2.5376  2555.0208 H        781 DC      0.0000
   1459 H5         2.5057     2.3385  2555.7812 H        781 DC      0.0000
   1460 H6         4.4787     0.9968  2555.4184 H        781 DC      0.0000
   1461 H41       -0.7294     0.8084  2556.6596 H        781 DC      0.0000
   1462 H42        0.1283     2.2994  2556.3411 H        781 DC      0.0000
   1463 P         -9.9271    -1.3541  2590.2924 P.3      791 DG      0.0000
   1464 OP1      -11.3158    -0.8315  2590.2908 O.co2    791 DG      0.0000
   1465 OP2       -9.1528    -0.5516  2591.3481 O.co2    791 DG      0.0000
   1466 O5'       -9.7507    -2.9253  2590.4708 O.3      791 DG      0.0000
   1467 C5'       -9.4677    -3.9270  2589.4707 C.3      791 DG      0.0000
   1468 C4'       -8.3200    -4.7799  2589.9696 C.3      791 DG      0.0000
   1469 O4'       -7.0677    -4.2823  2589.5504 O.3      791 DG      0.0000
   1470 C3'       -8.2123    -5.0208  2591.4618 C.3      791 DG      0.0000
   1471 O3'       -8.1526    -6.4387  2591.7737 O.3      791 DG      0.0000
   1472 C2'       -6.9694    -4.2604  2591.8836 C.3      791 DG      0.0000
   1473 C1'       -6.1322    -4.2257  2590.6280 C.3      791 DG      0.0000
   1474 N9        -5.3155    -2.9987  2590.5989 N.ar     791 DG      0.0000
   1475 C8        -5.6906    -1.6959  2590.8278 C.ar     791 DG      0.0000
   1476 N7        -4.7060    -0.8304  2590.7381 N.ar     791 DG      0.0000
   1477 C5        -3.6016    -1.6170  2590.4211 C.ar     791 DG      0.0000
   1478 C6        -2.2422    -1.2880  2590.1952 C.2      791 DG      0.0000
   1479 O6        -1.7132    -0.1763  2590.2165 O.2      791 DG      0.0000
   1480 N1        -1.4254    -2.3487  2589.9137 N.am     791 DG      0.0000
   1481 C2        -1.8499    -3.5703  2589.8530 C.2      791 DG      0.0000
   1482 N2        -0.8928    -4.3609  2589.5562 N.pl3    791 DG      0.0000
   1483 N3        -3.1663    -3.9940  2590.0618 N.2      791 DG      0.0000
   1484 C4        -3.9608    -2.9490  2590.3343 C.ar     791 DG      0.0000
   1485 H5'      -10.3484    -4.5494  2589.3120 H        791 DG      0.0000
   1486 H5''      -9.1865    -3.4432  2588.5354 H        791 DG      0.0000
   1487 H4'       -8.4362    -5.7590  2589.5048 H        791 DG      0.0000
   1488 H3'       -9.0805    -4.5845  2591.9557 H        791 DG      0.0000
   1489 H2'       -7.2225    -3.2519  2592.2106 H        791 DG      0.0000
   1490 H2''      -6.4458    -4.7966  2592.6751 H        791 DG      0.0000
   1491 H1'       -5.4821    -5.1000  2590.5960 H        791 DG      0.0000
   1492 H8        -6.7054    -1.4090  2591.0609 H        791 DG      0.0000
   1493 H1        -0.4456    -2.1705  2589.7453 H        791 DG      0.0000
   1494 H21        0.0376    -3.9956  2589.4119 H        791 DG      0.0000
   1495 H22       -1.0660    -5.3518  2589.4658 H        791 DG      0.0000
   1496 P         -7.7561    -6.9815  2593.2023 P.3      792 DT      0.0000
   1497 OP1       -8.5486    -8.1565  2593.7140 O.co2    792 DT      0.0000
   1498 OP2       -8.1536    -5.8118  2594.1210 O.co2    792 DT      0.0000
   1499 O5'       -6.2154    -7.1496  2593.2309 O.3      792 DT      0.0000
   1500 C5'       -5.5538    -8.4365  2593.0869 C.3      792 DT      0.0000
   1501 C4'       -4.0753    -8.1140  2593.1444 C.3      792 DT      0.0000
   1502 O4'       -3.8150    -6.7551  2592.8692 O.3      792 DT      0.0000
   1503 C3'       -3.3820    -8.3777  2594.4571 C.3      792 DT      0.0000
   1504 O3'       -2.4165    -9.4228  2594.2689 O.3      792 DT      0.0000
   1505 C2'       -2.7143    -7.0599  2594.8493 C.3      792 DT      0.0000
   1506 C1'       -2.5431    -6.4191  2593.4966 C.3      792 DT      0.0000
   1507 N1        -2.4756    -4.9608  2593.5932 N.am     792 DT      0.0000
   1508 C2        -1.2562    -4.3718  2593.3953 C.2      792 DT      0.0000
   1509 O2        -0.2405    -5.0213  2593.1571 O.2      792 DT      0.0000
   1510 N3        -1.2029    -3.0063  2593.4764 N.am     792 DT      0.0000
   1511 C4        -2.2889    -2.2423  2593.7323 C.2      792 DT      0.0000
   1512 O4        -2.0844    -1.0010  2593.7776 O.2      792 DT      0.0000
   1513 C5        -3.5572    -2.8762  2593.9320 C.2      792 DT      0.0000
   1514 C7        -4.7824    -2.0679  2594.2119 C.3      792 DT      0.0000
   1515 C6        -3.6000    -4.2122  2593.8505 C.2      792 DT      0.0000
   1516 H5'       -5.8335    -9.1059  2593.9003 H        792 DT      0.0000
   1517 H5''      -5.8053    -8.8847  2592.1257 H        792 DT      0.0000
   1518 H4'       -3.5758    -8.7090  2592.3799 H        792 DT      0.0000
   1519 H3'       -4.1095    -8.6702  2595.2142 H        792 DT      0.0000
   1520 H2'       -3.3551    -6.4628  2595.4982 H        792 DT      0.0000
   1521 H2''      -1.7470    -7.2397  2595.3186 H        792 DT      0.0000
   1522 H1'       -1.6951    -6.8334  2592.9513 H        792 DT      0.0000
   1523 H3        -0.3129    -2.5492  2593.3389 H        792 DT      0.0000
   1524 H6        -4.5449    -4.7163  2593.9909 H        792 DT      0.0000
   1525 H71       -5.3846    -1.9946  2593.3063 H        792 DT      0.0000
   1526 H72       -4.4918    -1.0689  2594.5366 H        792 DT      0.0000
   1527 H73       -5.3643    -2.5504  2594.9972 H        792 DT      0.0000
   1528 P         -2.3001   -10.4199  2595.5489 P.3      793 DG      0.0000
   1529 OP1       -2.0669   -11.7447  2594.8338 O.co2    793 DG      0.0000
   1530 OP2       -3.5401   -10.3651  2596.3024 O.co2    793 DG      0.0000
   1531 O5'       -0.9445    -9.7454  2596.1584 O.3      793 DG      0.0000
   1532 C5'        0.0300    -9.5346  2595.0678 C.3      793 DG      0.0000
   1533 C4'        1.1050    -8.6264  2595.5878 C.3      793 DG      0.0000
   1534 O4'        0.9040    -7.2501  2595.4072 O.3      793 DG      0.0000
   1535 C3'        1.3829    -8.8409  2597.0958 C.3      793 DG      0.0000
   1536 O3'        2.7987    -9.1008  2597.2547 O.3      793 DG      0.0000
   1537 C2'        0.8522    -7.5823  2597.7484 C.3      793 DG      0.0000
   1538 C1'        1.1094    -6.5396  2596.6669 C.3      793 DG      0.0000
   1539 N9         0.2415    -5.3689  2596.8364 N.ar     793 DG      0.0000
   1540 C8        -1.0835    -5.3277  2597.1726 C.ar     793 DG      0.0000
   1541 N7        -1.5899    -4.1173  2597.2584 N.ar     793 DG      0.0000
   1542 C5        -0.5089    -3.3030  2596.9283 C.ar     793 DG      0.0000
   1543 C6        -0.4051    -1.8856  2596.8340 C.2      793 DG      0.0000
   1544 O6        -1.2897    -1.0382  2597.0263 O.2      793 DG      0.0000
   1545 N1         0.8489    -1.4284  2596.4990 N.am     793 DG      0.0000
   1546 C2         1.8895    -2.2774  2596.2752 C.2      793 DG      0.0000
   1547 N2         3.0353    -1.6563  2595.9664 N.pl3    793 DG      0.0000
   1548 N3         1.8420    -3.6058  2596.3462 N.2      793 DG      0.0000
   1549 C4         0.6179    -4.0546  2596.6728 C.ar     793 DG      0.0000
   1550 H5'        0.4630   -10.4887  2594.7673 H        793 DG      0.0000
   1551 H5''      -0.4652    -9.0696  2594.2154 H        793 DG      0.0000
   1552 H4'        2.0215    -8.8846  2595.0572 H        793 DG      0.0000
   1553 H3'        0.8145    -9.7007  2597.4506 H        793 DG      0.0000
   1554 H2'       -0.2112    -7.6690  2597.9714 H        793 DG      0.0000
   1555 H2''       1.4172    -7.3487  2598.6508 H        793 DG      0.0000
   1556 H1'        2.1496    -6.2192  2596.7258 H        793 DG      0.0000
   1557 H8        -1.6674    -6.2182  2597.3532 H        793 DG      0.0000
   1558 H1         1.0019    -0.4334  2596.4166 H        793 DG      0.0000
   1559 H21        3.0655    -0.6480  2595.9161 H        793 DG      0.0000
   1560 H22        3.8692    -2.1962  2595.7837 H        793 DG      0.0000
   1561 P          3.4109    -9.4767  2598.6431 P.3      794 DA      0.0000
   1562 OP1        3.4367   -10.9279  2598.9985 O.co2    794 DA      0.0000
   1563 OP2        2.3163    -8.7887  2599.5389 O.co2    794 DA      0.0000
   1564 O5'        4.7115    -8.6042  2598.8922 O.3      794 DA      0.0000
   1565 C5'        5.5054    -7.9956  2597.8632 C.3      794 DA      0.0000
   1566 C4'        5.7542    -6.5729  2598.3375 C.3      794 DA      0.0000
   1567 O4'        4.5697    -5.8104  2598.2471 O.3      794 DA      0.0000
   1568 C3'        6.2745    -6.4175  2599.7666 C.3      794 DA      0.0000
   1569 O3'        7.3917    -5.5063  2599.8189 O.3      794 DA      0.0000
   1570 C2'        5.0364    -5.8902  2600.5020 C.3      794 DA      0.0000
   1571 C1'        4.4899    -4.9660  2599.4244 C.3      794 DA      0.0000
   1572 N9         3.1036    -4.5464  2599.6528 N.ar     794 DA      0.0000
   1573 C8         1.9831    -5.2974  2599.8686 C.ar     794 DA      0.0000
   1574 N7         0.8893    -4.5872  2600.0336 N.ar     794 DA      0.0000
   1575 C5         1.3197    -3.2763  2599.8934 C.ar     794 DA      0.0000
   1576 C6         0.6191    -2.0513  2599.9413 C.ar     794 DA      0.0000
   1577 N6        -0.6931    -1.9402  2600.1611 N.pl3    794 DA      0.0000
   1578 N1         1.3838    -0.9351  2599.7515 N.ar     794 DA      0.0000
   1579 C2         2.7162    -1.0252  2599.5338 C.ar     794 DA      0.0000
   1580 N3         3.4416    -2.1414  2599.4755 N.ar     794 DA      0.0000
   1581 C4         2.6728    -3.2297  2599.6624 C.ar     794 DA      0.0000
   1582 H5'        4.9660    -7.9933  2596.9160 H        794 DA      0.0000
   1583 H5''       6.4514    -8.5263  2597.7554 H        794 DA      0.0000
   1584 H4'        6.4880    -6.1246  2597.6677 H        794 DA      0.0000
   1585 H3'        6.5637    -7.3887  2600.1680 H        794 DA      0.0000
   1586 H2'        4.3367    -6.6890  2600.7475 H        794 DA      0.0000
   1587 H2''       5.3191    -5.3293  2601.3929 H        794 DA      0.0000
   1588 H1'        5.1350    -4.0949  2599.3099 H        794 DA      0.0000
   1589 H8         1.9948    -6.3768  2599.9007 H        794 DA      0.0000
   1590 H2         3.2472    -0.0953  2599.3924 H        794 DA      0.0000
   1591 H61       -1.3619    -2.6908  2600.0637 H        794 DA      0.0000
   1592 H62       -1.1338    -1.0477  2599.9896 H        794 DA      0.0000
   1593 P          8.5672    -5.6215  2600.9603 P.3      795 DA      0.0000
   1594 OP1        9.8953    -5.8800  2600.2932 O.co2    795 DA      0.0000
   1595 OP2        8.0499    -6.7278  2601.7912 O.co2    795 DA      0.0000
   1596 O5'        8.6797    -4.1213  2601.4911 O.3      795 DA      0.0000
   1597 C5'        9.0534    -3.0186  2600.6668 C.3      795 DA      0.0000
   1598 C4'        8.3488    -1.7788  2601.1891 C.3      795 DA      0.0000
   1599 O4'        6.9609    -1.9576  2601.2173 O.3      795 DA      0.0000
   1600 C3'        8.7622    -1.2625  2602.5564 C.3      795 DA      0.0000
   1601 O3'        9.3448     0.0383  2602.4786 O.3      795 DA      0.0000
   1602 C2'        7.4747    -1.3516  2603.3852 C.3      795 DA      0.0000
   1603 C1'        6.3800    -1.3031  2602.3914 C.3      795 DA      0.0000
   1604 N9         5.0984    -1.9805  2602.6594 N.ar     795 DA      0.0000
   1605 C8         4.8142    -3.3197  2602.7746 C.ar     795 DA      0.0000
   1606 N7         3.5406    -3.5855  2602.9439 N.ar     795 DA      0.0000
   1607 C5         2.9331    -2.3345  2602.9069 C.ar     795 DA      0.0000
   1608 C6         1.5705    -1.9388  2603.0273 C.ar     795 DA      0.0000
   1609 N6         0.5444    -2.7584  2603.2190 N.pl3    795 DA      0.0000
   1610 N1         1.3338    -0.5905  2602.9292 N.ar     795 DA      0.0000
   1611 C2         2.3643     0.2840  2602.7401 C.ar     795 DA      0.0000
   1612 N3         3.6535    -0.0168  2602.6322 N.ar     795 DA      0.0000
   1613 C4         3.8704    -1.3443  2602.7241 C.ar     795 DA      0.0000
   1614 H5'        8.7515    -3.2085  2599.6368 H        795 DA      0.0000
   1615 H5''      10.1328    -2.8745  2600.7128 H        795 DA      0.0000
   1616 H4'        8.5490    -0.9788  2600.4764 H        795 DA      0.0000
   1617 H3'        9.4965    -1.9478  2602.9796 H        795 DA      0.0000
   1618 H2'        7.4431    -2.2861  2603.9454 H        795 DA      0.0000
   1619 H2''       7.4046    -0.5023  2604.0647 H        795 DA      0.0000
   1620 H1'        6.1784    -0.2605  2602.1453 H        795 DA      0.0000
   1621 H8         5.5731    -4.0868  2602.7297 H        795 DA      0.0000
   1622 H2         2.1044     1.3300  2602.6709 H        795 DA      0.0000
   1623 H61        0.6657    -3.7066  2603.5452 H        795 DA      0.0000
   1624 H62       -0.3896    -2.4226  2603.0322 H        795 DA      0.0000
   1625 P         10.5342     0.6000  2603.4348 P.3      796 DT      0.0000
   1626 OP1       11.5685     1.3865  2602.6375 O.co2    796 DT      0.0000
   1627 OP2       11.0758    -0.4629  2604.2554 O.co2    796 DT      0.0000
   1628 O5'        9.7620     1.8028  2604.2485 O.3      796 DT      0.0000
   1629 C5'        8.8692     2.5337  2603.3034 C.3      796 DT      0.0000
   1630 C4'        7.6056     2.7698  2604.0911 C.3      796 DT      0.0000
   1631 O4'        6.8322     1.6066  2604.2831 O.3      796 DT      0.0000
   1632 C3'        7.8934     3.3005  2605.5077 C.3      796 DT      0.0000
   1633 O3'        7.7491     4.7088  2605.5094 O.3      796 DT      0.0000
   1634 C2'        6.9098     2.5535  2606.4050 C.3      796 DT      0.0000
   1635 C1'        5.9585     1.9664  2605.4404 C.3      796 DT      0.0000
   1636 N1         5.2037     0.7707  2605.7801 N.am     796 DT      0.0000
   1637 C2         3.8267     0.9147  2605.9181 C.2      796 DT      0.0000
   1638 O2         3.3190     2.0253  2605.8300 O.2      796 DT      0.0000
   1639 N3         3.0848    -0.1992  2606.1721 N.am     796 DT      0.0000
   1640 C4         3.6377    -1.4420  2606.2922 C.2      796 DT      0.0000
   1641 O4         2.8790    -2.4311  2606.5474 O.2      796 DT      0.0000
   1642 C5         5.0555    -1.5694  2606.1206 C.2      796 DT      0.0000
   1643 C7         5.7119    -2.9193  2606.2081 C.3      796 DT      0.0000
   1644 C6         5.7822    -0.4679  2605.8649 C.2      796 DT      0.0000
   1645 H5'        9.3184     3.4799  2603.0018 H        796 DT      0.0000
   1646 H5''       8.6599     1.9184  2602.4284 H        796 DT      0.0000
   1647 H4'        6.9997     3.5054  2603.5620 H        796 DT      0.0000
   1648 H3'        8.9130     3.0402  2605.7921 H        796 DT      0.0000
   1649 H2'        7.4154     1.7766  2606.9784 H        796 DT      0.0000
   1650 H2''       6.3979     3.2478  2607.0714 H        796 DT      0.0000
   1651 H1'        5.2605     2.7411  2605.1230 H        796 DT      0.0000
   1652 H3         2.0849    -0.1018  2606.2758 H        796 DT      0.0000
   1653 H6         6.8487    -0.5619  2605.7227 H        796 DT      0.0000
   1654 H71        4.9582    -3.6773  2606.4212 H        796 DT      0.0000
   1655 H72        6.1992    -3.1482  2605.2604 H        796 DT      0.0000
   1656 H73        6.4546    -2.9111  2607.0059 H        796 DT      0.0000
   1657 P          8.1286     5.7291  2606.6160 P.3      797 DT      0.0000
   1658 OP1        8.3311     7.1394  2606.0039 O.co2    797 DT      0.0000
   1659 OP2        9.3729     5.2173  2607.2460 O.co2    797 DT      0.0000
   1660 O5'        6.7977     5.8779  2607.4983 O.3      797 DT      0.0000
   1661 C5'        5.7358     6.5683  2606.7866 C.3      797 DT      0.0000
   1662 C4'        4.4409     6.2786  2607.4627 C.3      797 DT      0.0000
   1663 O4'        4.0755     4.9044  2607.4394 O.3      797 DT      0.0000
   1664 C3'        4.3766     6.7286  2608.9294 C.3      797 DT      0.0000
   1665 O3'        3.1374     7.3586  2609.1934 O.3      797 DT      0.0000
   1666 C2'        4.4403     5.3693  2609.6657 C.3      797 DT      0.0000
   1667 C1'        3.4908     4.6094  2608.7621 C.3      797 DT      0.0000
   1668 N1         3.5104     3.1892  2609.0598 N.am     797 DT      0.0000
   1669 C2         2.3049     2.5086  2609.1147 C.2      797 DT      0.0000
   1670 O2         1.2593     3.1321  2608.9262 O.2      797 DT      0.0000
   1671 N3         2.3308     1.1685  2609.3806 N.am     797 DT      0.0000
   1672 C4         3.4937     0.4922  2609.5876 C.2      797 DT      0.0000
   1673 O4         3.4406    -0.7511  2609.8109 O.2      797 DT      0.0000
   1674 C5         4.7283     1.2017  2609.5225 C.2      797 DT      0.0000
   1675 C7         6.0519     0.5258  2609.7324 C.3      797 DT      0.0000
   1676 C6         4.6845     2.5174  2609.2614 C.2      797 DT      0.0000
   1677 H5'        5.9238     7.6419  2606.7990 H        797 DT      0.0000
   1678 H5''       5.6971     6.2157  2605.7559 H        797 DT      0.0000
   1679 H4'        3.6674     6.8262  2606.9243 H        797 DT      0.0000
   1680 H3'        5.2186     7.3692  2609.1918 H        797 DT      0.0000
   1681 H2'        5.4437     4.9437  2609.6645 H        797 DT      0.0000
   1682 H2''       4.0451     5.4486  2610.6784 H        797 DT      0.0000
   1683 H1'        2.4793     5.0084  2608.8378 H        797 DT      0.0000
   1684 H3         1.4576     0.6629  2609.4250 H        797 DT      0.0000
   1685 H6         5.6126     3.0671  2609.2083 H        797 DT      0.0000
   1686 H71        5.8919    -0.5339  2609.9314 H        797 DT      0.0000
   1687 H72        6.6632     0.6389  2608.8371 H        797 DT      0.0000
   1688 H73        6.5621     0.9818  2610.5808 H        797 DT      0.0000
   1689 P          2.6669     8.7268  2609.8014 P.3      798 DC      0.0000
   1690 OP1        2.0959     9.6398  2608.7334 O.co2    798 DC      0.0000
   1691 OP2        3.8335     9.2487  2610.5363 O.co2    798 DC      0.0000
   1692 O5'        1.3935     8.1300  2610.6274 O.3      798 DC      0.0000
   1693 C5'        0.6406     7.3794  2609.6051 C.3      798 DC      0.0000
   1694 C4'       -0.5218     6.7310  2610.3016 C.3      798 DC      0.0000
   1695 O4'       -0.3114     5.3753  2610.5485 O.3      798 DC      0.0000
   1696 C3'       -0.9633     7.4103  2611.5931 C.3      798 DC      0.0000
   1697 O3'       -2.3343     7.7770  2611.5134 O.3      798 DC      0.0000
   1698 C2'       -0.5500     6.3754  2612.6419 C.3      798 DC      0.0000
   1699 C1'       -0.6437     5.0758  2611.9454 C.3      798 DC      0.0000
   1700 N1         0.3662     4.0660  2612.2775 N.am     798 DC      0.0000
   1701 C2        -0.1162     2.7843  2612.5333 C.2      798 DC      0.0000
   1702 O2        -1.3271     2.5423  2612.5378 O.2      798 DC      0.0000
   1703 N3         0.8058     1.8043  2612.8072 N.2      798 DC      0.0000
   1704 C4         2.1448     2.0636  2612.7973 C.2      798 DC      0.0000
   1705 N4         2.9570     1.0494  2613.0741 N.pl3    798 DC      0.0000
   1706 C5         2.6199     3.3641  2612.5192 C.2      798 DC      0.0000
   1707 C6         1.7017     4.3161  2612.2545 C.2      798 DC      0.0000
   1708 H5'        0.2816     8.0582  2608.8315 H        798 DC      0.0000
   1709 H5''       1.2791     6.6158  2609.1609 H        798 DC      0.0000
   1710 H4'       -1.3666     6.7927  2609.6157 H        798 DC      0.0000
   1711 H3'       -0.3673     8.3116  2611.7364 H        798 DC      0.0000
   1712 H2'        0.4702     6.5574  2612.9798 H        798 DC      0.0000
   1713 H2''      -1.2374     6.4004  2613.4874 H        798 DC      0.0000
   1714 H1'       -1.6489     4.6624  2612.0264 H        798 DC      0.0000
   1715 H5         3.6765     3.5877  2612.5187 H        798 DC      0.0000
   1716 H6         2.0402     5.3134  2612.0154 H        798 DC      0.0000
   1717 H41        2.5747     0.1361  2613.2733 H        798 DC      0.0000
   1718 H42        3.9569     1.1918  2613.0854 H        798 DC      0.0000
   1719 P         -3.1007     8.8445  2612.4655 P.3      799 DA      0.0000
   1720 OP1       -4.2757     9.3827  2611.6717 O.co2    799 DA      0.0000
   1721 OP2       -2.1404     9.9123  2612.8110 O.co2    799 DA      0.0000
   1722 O5'       -3.5756     7.9499  2613.7625 O.3      799 DA      0.0000
   1723 C5'       -4.3311     6.7353  2613.4672 C.3      799 DA      0.0000
   1724 C4'       -4.6078     5.9748  2614.7225 C.3      799 DA      0.0000
   1725 O4'       -3.7372     4.8656  2614.9647 O.3      799 DA      0.0000
   1726 C3'       -4.4805     6.7780  2616.0277 C.3      799 DA      0.0000
   1727 O3'       -5.1932     6.0892  2617.0577 O.3      799 DA      0.0000
   1728 C2'       -2.9579     6.6652  2616.2423 C.3      799 DA      0.0000
   1729 C1'       -2.8679     5.1464  2616.0591 C.3      799 DA      0.0000
   1730 N9        -1.4709     4.7577  2615.9647 N.ar     799 DA      0.0000
   1731 C8        -0.3407     5.5186  2615.8489 C.ar     799 DA      0.0000
   1732 N7         0.7910     4.8374  2615.8303 N.ar     799 DA      0.0000
   1733 C5         0.3687     3.5199  2615.9379 C.ar     799 DA      0.0000
   1734 C6         1.0799     2.2951  2615.9724 C.ar     799 DA      0.0000
   1735 N6         2.3938     2.1892  2615.8871 N.pl3    799 DA      0.0000
   1736 N1         0.3251     1.1650  2616.1049 N.ar     799 DA      0.0000
   1737 C2        -1.0406     1.2284  2616.1851 C.ar     799 DA      0.0000
   1738 N3        -1.7773     2.3365  2616.1553 N.ar     799 DA      0.0000
   1739 C4        -1.0116     3.4484  2616.0323 C.ar     799 DA      0.0000
   1740 H5'       -5.2760     7.0061  2612.9961 H        799 DA      0.0000
   1741 H5''      -3.7550     6.1091  2612.7859 H        799 DA      0.0000
   1742 H4'       -5.6269     5.5927  2614.6636 H        799 DA      0.0000
   1743 H3'       -4.8090     7.8110  2615.9141 H        799 DA      0.0000
   1744 H2'       -2.3875     7.2121  2615.4916 H        799 DA      0.0000
   1745 H2''      -2.6747     6.9621  2617.2522 H        799 DA      0.0000
   1746 H1'       -3.2869     4.6764  2616.9487 H        799 DA      0.0000
   1747 H8        -0.3709     6.5959  2615.7779 H        799 DA      0.0000
   1748 H2        -1.5693     0.2916  2616.2816 H        799 DA      0.0000
   1749 H61        3.0528     1.4453  2616.0672 H        799 DA      0.0000
   1750 H62        2.8374     3.0402  2615.5724 H        799 DA      0.0000
   1751 P         -6.7824     6.2130  2617.1981 P.3      800 DC      0.0000
   1752 OP1       -7.4467     6.6921  2615.9530 O.co2    800 DC      0.0000
   1753 OP2       -6.9258     7.1760  2618.3410 O.co2    800 DC      0.0000
   1754 O5'       -7.2405     4.7215  2617.4813 O.3      800 DC      0.0000
   1755 C5'       -7.4168     3.7641  2616.3936 C.3      800 DC      0.0000
   1756 C4'       -7.1092     2.4382  2617.0985 C.3      800 DC      0.0000
   1757 O4'       -5.7354     2.4371  2617.4105 O.3      800 DC      0.0000
   1758 C3'       -7.8691     2.2465  2618.4084 C.3      800 DC      0.0000
   1759 O3'       -8.5632     0.9803  2618.4763 O.3      800 DC      0.0000
   1760 C2'       -6.7907     2.4069  2619.4906 C.3      800 DC      0.0000
   1761 C1'       -5.5814     1.9011  2618.8145 C.3      800 DC      0.0000
   1762 N1        -4.2504     2.3882  2619.1673 N.am     800 DC      0.0000
   1763 C2        -3.2417     1.4268  2619.1404 C.2      800 DC      0.0000
   1764 O2        -3.4640     0.2405  2618.9335 O.2      800 DC      0.0000
   1765 N3        -1.9727     1.8455  2619.3935 N.2      800 DC      0.0000
   1766 C4        -1.6679     3.1449  2619.6269 C.2      800 DC      0.0000
   1767 N4        -0.3882     3.4320  2619.8578 N.pl3    800 DC      0.0000
   1768 C5        -2.7042     4.1188  2619.6334 C.2      800 DC      0.0000
   1769 C6        -3.9540     3.6983  2619.3840 C.2      800 DC      0.0000
   1770 H5'       -8.4365     3.7827  2616.0087 H        800 DC      0.0000
   1771 H5''      -6.6995     3.9516  2615.5946 H        800 DC      0.0000
   1772 H4'       -7.3297     1.6093  2616.4259 H        800 DC      0.0000
   1773 H3'       -8.5959     3.0520  2618.5143 H        800 DC      0.0000
   1774 H2'       -6.6733     3.4519  2619.7776 H        800 DC      0.0000
   1775 H2''      -7.0273     1.7948  2620.3609 H        800 DC      0.0000
   1776 H1'       -5.5891     0.8112  2618.8012 H        800 DC      0.0000
   1777 H5        -2.4930     5.1592  2619.8320 H        800 DC      0.0000
   1778 H6        -4.7523     4.4251  2619.3543 H        800 DC      0.0000
   1779 H41        0.3042     2.6968  2619.8468 H        800 DC      0.0000
   1780 H42       -0.1101     4.3850  2620.0440 H        800 DC      0.0000
   1781 P          8.1706    -2.2994  2621.4359 P.3      800 DG      0.0000
   1782 OP1        9.6167    -2.6369  2621.6146 O.co2    800 DG      0.0000
   1783 OP2        7.9309    -1.2577  2620.3510 O.co2    800 DG      0.0000
   1784 O5'        7.3083    -3.6860  2621.2286 O.3      800 DG      0.0000
   1785 C5'        6.4642    -4.1727  2622.3244 C.3      800 DG      0.0000
   1786 C4'        5.1974    -4.7422  2621.6901 C.3      800 DG      0.0000
   1787 O4'        4.1808    -3.7821  2621.5943 O.3      800 DG      0.0000
   1788 C3'        5.3921    -5.3027  2620.2838 C.3      800 DG      0.0000
   1789 O3'        4.6520    -6.5163  2620.0168 O.3      800 DG      0.0000
   1790 C2'        4.9241    -4.1466  2619.3815 C.3      800 DG      0.0000
   1791 C1'        3.7745    -3.5907  2620.2053 C.3      800 DG      0.0000
   1792 N9         3.5706    -2.1578  2619.9320 N.ar     800 DG      0.0000
   1793 C8         4.5270    -1.1829  2619.7754 C.ar     800 DG      0.0000
   1794 N7         4.0391     0.0093  2619.5569 N.ar     800 DG      0.0000
   1795 C5         2.6635    -0.1882  2619.5817 C.ar     800 DG      0.0000
   1796 C6         1.5828     0.7202  2619.4253 C.2      800 DG      0.0000
   1797 O6         1.6648     1.9410  2619.2284 O.2      800 DG      0.0000
   1798 N1         0.3408     0.1413  2619.5122 N.am     800 DG      0.0000
   1799 C2         0.1650    -1.1846  2619.7329 C.2      800 DG      0.0000
   1800 N2        -1.0964    -1.6022  2619.7962 N.pl3    800 DG      0.0000
   1801 N3         1.1462    -2.0814  2619.8906 N.2      800 DG      0.0000
   1802 C4         2.3646    -1.5127  2619.8073 C.ar     800 DG      0.0000
   1803 H5'        6.9861    -4.9503  2622.8822 H        800 DG      0.0000
   1804 H5''       6.2077    -3.3480  2622.9893 H        800 DG      0.0000
   1805 H4'        4.8372    -5.5502  2622.3268 H        800 DG      0.0000
   1806 H3'        6.4533    -5.4843  2620.1133 H        800 DG      0.0000
   1807 H2'        5.7105    -3.4055  2619.2388 H        800 DG      0.0000
   1808 H2''       4.5675    -4.5231  2618.4227 H        800 DG      0.0000
   1809 H1'        2.8601    -4.1473  2620.0001 H        800 DG      0.0000
   1810 H8         5.5867    -1.3843  2619.8281 H        800 DG      0.0000
   1811 H1        -0.4752     0.7272  2619.4074 H        800 DG      0.0000
   1812 H21       -1.8529    -0.9431  2619.6811 H        800 DG      0.0000
   1813 H22       -1.2975    -2.5785  2619.9594 H        800 DG      0.0000
   1814 P          4.2061    -6.7358  2618.4933 P.3      799 DT      0.0000
   1815 OP1        4.0736    -8.1830  2618.1024 O.co2    799 DT      0.0000
   1816 OP2        5.3445    -6.0920  2617.7928 O.co2    799 DT      0.0000
   1817 O5'        2.7894    -5.9989  2618.3624 O.3      799 DT      0.0000
   1818 C5'        1.5988    -6.8069  2618.6300 C.3      799 DT      0.0000
   1819 C4'        0.4338    -6.2074  2617.8730 C.3      799 DT      0.0000
   1820 O4'        0.4632    -4.7915  2617.8457 O.3      799 DT      0.0000
   1821 C3'        0.3782    -6.6476  2616.4183 C.3      799 DT      0.0000
   1822 O3'       -0.9593    -6.8748  2615.9232 O.3      799 DT      0.0000
   1823 C2'        1.0605    -5.5074  2615.6954 C.3      799 DT      0.0000
   1824 C1'        0.4800    -4.3382  2616.4735 C.3      799 DT      0.0000
   1825 N1         1.4229    -3.2188  2616.3222 N.am     799 DT      0.0000
   1826 C2         0.8824    -1.9413  2616.4290 C.2      799 DT      0.0000
   1827 O2        -0.3195    -1.7887  2616.6187 O.2      799 DT      0.0000
   1828 N3         1.7441    -0.8871  2616.3088 N.am     799 DT      0.0000
   1829 C4         3.0773    -1.0668  2616.0913 C.2      799 DT      0.0000
   1830 O4         3.8023    -0.0220  2615.9937 O.2      799 DT      0.0000
   1831 C5         3.6013    -2.3868  2615.9849 C.2      799 DT      0.0000
   1832 C7         5.0707    -2.5969  2615.7559 C.3      799 DT      0.0000
   1833 C6         2.7551    -3.4127  2616.1066 C.2      799 DT      0.0000
   1834 H5'        1.7666    -7.8309  2618.2963 H        799 DT      0.0000
   1835 H5''       1.3840    -6.8003  2619.6987 H        799 DT      0.0000
   1836 H4'       -0.4890    -6.5211  2618.3609 H        799 DT      0.0000
   1837 H3'        0.9672    -7.5563  2616.2943 H        799 DT      0.0000
   1838 H2'        2.1454    -5.5587  2615.7870 H        799 DT      0.0000
   1839 H2''       0.7573    -5.4702  2614.6490 H        799 DT      0.0000
   1840 H1'       -0.5181    -4.0756  2616.1229 H        799 DT      0.0000
   1841 H3         1.3821     0.0528  2616.3835 H        799 DT      0.0000
   1842 H6         3.1354    -4.4208  2616.0325 H        799 DT      0.0000
   1843 H71        5.5700    -1.6305  2615.6872 H        799 DT      0.0000
   1844 H72        5.4901    -3.1641  2616.5868 H        799 DT      0.0000
   1845 H73        5.2185    -3.1490  2614.8278 H        799 DT      0.0000
   1846 P         -0.9495    -8.3406  2615.1448 P.3      798 DG      0.0000
   1847 OP1       -1.3719    -9.4785  2616.0160 O.co2    798 DG      0.0000
   1848 OP2        0.4781    -8.3636  2614.7392 O.co2    798 DG      0.0000
   1849 O5'       -2.1029    -8.1036  2614.0640 O.3      798 DG      0.0000
   1850 C5'       -3.4870    -8.1924  2614.4874 C.3      798 DG      0.0000
   1851 C4'       -4.1161    -6.8791  2614.0397 C.3      798 DG      0.0000
   1852 O4'       -3.2302    -5.8113  2614.3104 O.3      798 DG      0.0000
   1853 C3'       -4.4629    -6.8210  2612.5520 C.3      798 DG      0.0000
   1854 O3'       -5.8311    -6.5200  2612.3435 O.3      798 DG      0.0000
   1855 C2'       -3.4778    -5.8198  2611.9753 C.3      798 DG      0.0000
   1856 C1'       -3.1648    -4.9385  2613.1614 C.3      798 DG      0.0000
   1857 N9        -1.8289    -4.3492  2613.0378 N.ar     798 DG      0.0000
   1858 C8        -0.6316    -4.9877  2612.8790 C.ar     798 DG      0.0000
   1859 N7         0.3936    -4.1748  2612.8009 N.ar     798 DG      0.0000
   1860 C5        -0.1676    -2.9086  2612.9384 C.ar     798 DG      0.0000
   1861 C6         0.4111    -1.6120  2612.9479 C.2      798 DG      0.0000
   1862 O6         1.6012    -1.3314  2612.8489 O.2      798 DG      0.0000
   1863 N1        -0.4842    -0.5911  2613.0969 N.am     798 DG      0.0000
   1864 C2        -1.8330    -0.8164  2613.2298 C.2      798 DG      0.0000
   1865 N2        -2.5942     0.2698  2613.3654 N.pl3    798 DG      0.0000
   1866 N3        -2.4407    -2.0072  2613.2341 N.2      798 DG      0.0000
   1867 C4        -1.5409    -3.0089  2613.0834 C.ar     798 DG      0.0000
   1868 H5'       -3.9814    -9.0377  2614.0087 H        798 DG      0.0000
   1869 H5''      -3.5440    -8.2872  2615.5718 H        798 DG      0.0000
   1870 H4'       -5.0299    -6.7220  2614.6127 H        798 DG      0.0000
   1871 H3'       -4.2559    -7.7971  2612.1134 H        798 DG      0.0000
   1872 H2'       -2.5804    -6.3183  2611.6089 H        798 DG      0.0000
   1873 H2''      -3.9444    -5.2389  2611.1797 H        798 DG      0.0000
   1874 H1'       -3.9133    -4.1509  2613.2484 H        798 DG      0.0000
   1875 H8        -0.5385    -6.0622  2612.8229 H        798 DG      0.0000
   1876 H1        -0.1437     0.3596  2613.1097 H        798 DG      0.0000
   1877 H21       -2.1705     1.1866  2613.3664 H        798 DG      0.0000
   1878 H22       -3.5946     0.1759  2613.4672 H        798 DG      0.0000
   1879 P         -6.6247    -5.4632  2611.4772 P.3      797 DA      0.0000
   1880 OP1       -7.8387    -4.9448  2612.2585 O.co2    797 DA      0.0000
   1881 OP2       -7.0583    -6.1945  2610.2845 O.co2    797 DA      0.0000
   1882 O5'       -5.6337    -4.1820  2611.3024 O.3      797 DA      0.0000
   1883 C5'       -5.7185    -3.2673  2612.4588 C.3      797 DA      0.0000
   1884 C4'       -6.2390    -1.9532  2611.9310 C.3      797 DA      0.0000
   1885 O4'       -5.2132    -1.0191  2611.7088 O.3      797 DA      0.0000
   1886 C3'       -6.9593    -2.0930  2610.5905 C.3      797 DA      0.0000
   1887 O3'       -8.1200    -1.3002  2610.5153 O.3      797 DA      0.0000
   1888 C2'       -5.8484    -1.8144  2609.5940 C.3      797 DA      0.0000
   1889 C1'       -4.8251    -0.9846  2610.3178 C.3      797 DA      0.0000
   1890 N9        -3.4592    -1.4873  2610.0923 N.ar     797 DA      0.0000
   1891 C8        -3.0334    -2.7848  2609.9059 C.ar     797 DA      0.0000
   1892 N7        -1.7408    -2.9077  2609.7100 N.ar     797 DA      0.0000
   1893 C5        -1.2803    -1.5998  2609.7969 C.ar     797 DA      0.0000
   1894 C6         0.0217    -1.0573  2609.6913 C.ar     797 DA      0.0000
   1895 N6         1.1056    -1.7826  2609.4788 N.pl3    797 DA      0.0000
   1896 N1         0.1185     0.2953  2609.8150 N.ar     797 DA      0.0000
   1897 C2        -0.9841     1.0694  2610.0395 C.ar     797 DA      0.0000
   1898 N3        -2.2330     0.6226  2610.1554 N.ar     797 DA      0.0000
   1899 C4        -2.3165    -0.7230  2610.0193 C.ar     797 DA      0.0000
   1900 H5'       -6.4019    -3.6692  2613.2069 H        797 DA      0.0000
   1901 H5''      -4.7297    -3.1272  2612.8955 H        797 DA      0.0000
   1902 H4'       -6.9361    -1.5378  2612.6587 H        797 DA      0.0000
   1903 H3'       -7.2574    -3.1353  2610.4774 H        797 DA      0.0000
   1904 H2'       -6.2400    -1.2663  2608.7371 H        797 DA      0.0000
   1905 H2''      -5.4012    -2.7519  2609.2634 H        797 DA      0.0000
   1906 H1'       -4.8866     0.0429  2609.9596 H        797 DA      0.0000
   1907 H8        -3.7063    -3.6294  2609.9198 H        797 DA      0.0000
   1908 H2        -0.8299     2.1344  2610.1308 H        797 DA      0.0000
   1909 H61        2.0131    -1.4707  2609.7942 H        797 DA      0.0000
   1910 H62        1.0253    -2.6642  2608.9926 H        797 DA      0.0000
   1911 P         -8.7331    -0.4531  2609.3307 P.3      796 DA      0.0000
   1912 OP1       -9.8841     0.4568  2609.8506 O.co2    796 DA      0.0000
   1913 OP2       -9.3040    -1.4734  2608.3971 O.co2    796 DA      0.0000
   1914 O5'       -7.6122     0.5332  2608.8280 O.3      796 DA      0.0000
   1915 C5'       -7.5992     1.9019  2609.2839 C.3      796 DA      0.0000
   1916 C4'       -6.4490     2.5903  2608.5820 C.3      796 DA      0.0000
   1917 O4'       -5.2963     1.8065  2608.4612 O.3      796 DA      0.0000
   1918 C3'       -6.7957     3.0736  2607.1744 C.3      796 DA      0.0000
   1919 O3'       -6.7731     4.5132  2607.1430 O.3      796 DA      0.0000
   1920 C2'       -5.8212     2.3111  2606.2749 C.3      796 DA      0.0000
   1921 C1'       -4.6468     2.0649  2607.1726 C.3      796 DA      0.0000
   1922 N9        -3.8332     0.8911  2606.8731 N.ar     796 DA      0.0000
   1923 C8        -4.2259    -0.4170  2606.6783 C.ar     796 DA      0.0000
   1924 N7        -3.2266    -1.2456  2606.4729 N.ar     796 DA      0.0000
   1925 C5        -2.1033    -0.4454  2606.5474 C.ar     796 DA      0.0000
   1926 C6        -0.7271    -0.7363  2606.4139 C.ar     796 DA      0.0000
   1927 N6        -0.2475    -1.9523  2606.1707 N.pl3    796 DA      0.0000
   1928 N1         0.1140     0.3371  2606.5628 N.ar     796 DA      0.0000
   1929 C2        -0.3423     1.5790  2606.8153 C.ar     796 DA      0.0000
   1930 N3        -1.6249     1.9279  2606.9541 N.ar     796 DA      0.0000
   1931 C4        -2.4511     0.8682  2606.8069 C.ar     796 DA      0.0000
   1932 H5'       -8.5396     2.3903  2609.0288 H        796 DA      0.0000
   1933 H5''      -7.4465     1.9319  2610.3627 H        796 DA      0.0000
   1934 H4'       -6.1857     3.4680  2609.1721 H        796 DA      0.0000
   1935 H3'       -7.8073     2.7429  2606.9394 H        796 DA      0.0000
   1936 H2'       -6.2569     1.3715  2605.9350 H        796 DA      0.0000
   1937 H2''      -5.5281     2.9254  2605.4235 H        796 DA      0.0000
   1938 H1'       -4.0214     2.9555  2607.2338 H        796 DA      0.0000
   1939 H8        -5.2591    -0.7311  2606.6933 H        796 DA      0.0000
   1940 H2         0.3941     2.3628  2606.9143 H        796 DA      0.0000
   1941 H61        0.7063    -2.1068  2606.4648 H        796 DA      0.0000
   1942 H62       -0.7983    -2.6711  2605.7235 H        796 DA      0.0000
   1943 P         -7.0952     5.2682  2605.7580 P.3      795 DT      0.0000
   1944 OP1       -7.3775     6.7380  2605.8162 O.co2    795 DT      0.0000
   1945 OP2       -8.2147     4.4204  2605.2454 O.co2    795 DT      0.0000
   1946 O5'       -5.5926     5.1087  2605.0549 O.3      795 DT      0.0000
   1947 C5'       -4.5696     5.3528  2606.0672 C.3      795 DT      0.0000
   1948 C4'       -3.2993     5.7474  2605.3843 C.3      795 DT      0.0000
   1949 O4'       -2.4096     4.6864  2605.2038 O.3      795 DT      0.0000
   1950 C3'       -3.4998     6.3953  2604.0230 C.3      795 DT      0.0000
   1951 O3'       -2.5631     7.4462  2603.7557 O.3      795 DT      0.0000
   1952 C2'       -3.3619     5.1556  2603.1297 C.3      795 DT      0.0000
   1953 C1'       -2.1881     4.4458  2603.7697 C.3      795 DT      0.0000
   1954 N1        -2.2530     2.9902  2603.5397 N.am     795 DT      0.0000
   1955 C2        -1.0550     2.3083  2603.4181 C.2      795 DT      0.0000
   1956 O2         0.0232     2.9034  2603.4549 O.2      795 DT      0.0000
   1957 N3        -1.1029     0.9510  2603.2507 N.am     795 DT      0.0000
   1958 C4        -2.2812     0.2734  2603.2022 C.2      795 DT      0.0000
   1959 O4        -2.2319    -0.9792  2603.0166 O.2      795 DT      0.0000
   1960 C5        -3.5011     0.9909  2603.3506 C.2      795 DT      0.0000
   1961 C7        -4.8282     0.2720  2603.2985 C.3      795 DT      0.0000
   1962 C6        -3.4372     2.3152  2603.5235 C.2      795 DT      0.0000
   1963 H5'       -4.8940     6.1556  2606.7293 H        795 DT      0.0000
   1964 H5''      -4.4057     4.4446  2606.6472 H        795 DT      0.0000
   1965 H4'       -2.8039     6.4801  2606.0213 H        795 DT      0.0000
   1966 H3'       -4.5151     6.7852  2603.9510 H        795 DT      0.0000
   1967 H2'       -4.2621     4.5418  2603.1602 H        795 DT      0.0000
   1968 H2''      -3.1263     5.4432  2602.1050 H        795 DT      0.0000
   1969 H1'       -1.2376     4.8621  2603.4357 H        795 DT      0.0000
   1970 H3        -0.2379     0.4373  2603.1605 H        795 DT      0.0000
   1971 H6        -4.3550     2.8690  2603.6549 H        795 DT      0.0000
   1972 H71       -5.2431     0.3465  2602.2933 H        795 DT      0.0000
   1973 H72       -5.5165     0.7283  2604.0100 H        795 DT      0.0000
   1974 H73       -4.6833    -0.7774  2603.5550 H        795 DT      0.0000
   1975 P         -2.6556     8.1140  2602.2658 P.3      794 DT      0.0000
   1976 OP1       -3.1117     9.5668  2602.4138 O.co2    794 DT      0.0000
   1977 OP2       -3.7339     7.3115  2601.5960 O.co2    794 DT      0.0000
   1978 O5'       -1.2538     8.0029  2601.6137 O.3      794 DT      0.0000
   1979 C5'       -0.0399     8.0068  2602.3651 C.3      794 DT      0.0000
   1980 C4'        0.9768     7.2055  2601.6172 C.3      794 DT      0.0000
   1981 O4'        0.8206     5.8133  2601.5602 O.3      794 DT      0.0000
   1982 C3'        1.2573     7.6007  2600.1511 C.3      794 DT      0.0000
   1983 O3'        2.6573     7.3243  2600.0473 O.3      794 DT      0.0000
   1984 C2'        0.4092     6.5751  2599.3873 C.3      794 DT      0.0000
   1985 C1'        0.8531     5.3518  2600.1631 C.3      794 DT      0.0000
   1986 N1        -0.0165     4.1767  2600.0569 N.am     794 DT      0.0000
   1987 C2         0.6423     2.9399  2600.0563 C.2      794 DT      0.0000
   1988 O2         1.8726     2.8744  2600.0993 O.2      794 DT      0.0000
   1989 N3        -0.1379     1.8208  2600.0028 N.am     794 DT      0.0000
   1990 C4        -1.4988     1.8722  2599.9431 C.2      794 DT      0.0000
   1991 O4        -2.1339     0.7766  2599.8807 O.2      794 DT      0.0000
   1992 C5        -2.1415     3.1401  2599.9513 C.2      794 DT      0.0000
   1993 C7        -3.6530     3.2119  2599.8899 C.3      794 DT      0.0000
   1994 C6        -1.3744     4.2322  2600.0178 C.2      794 DT      0.0000
   1995 H5'        0.3147     9.0302  2602.4874 H        794 DT      0.0000
   1996 H5''      -0.2126     7.5589  2603.3437 H        794 DT      0.0000
   1997 H4'        1.9168     7.3685  2602.1444 H        794 DT      0.0000
   1998 H3'        0.9998     8.6349  2599.9224 H        794 DT      0.0000
   1999 H2'        0.6751     6.5181  2598.3318 H        794 DT      0.0000
   2000 H2''      -0.6561     6.7638  2599.5189 H        794 DT      0.0000
   2001 H1'        1.8725     5.0852  2599.8841 H        794 DT      0.0000
   2002 H3         0.3123     0.9167  2600.0077 H        794 DT      0.0000
   2003 H6        -1.8534     5.1999  2600.0415 H        794 DT      0.0000
   2004 H71       -4.0635     2.2034  2599.8411 H        794 DT      0.0000
   2005 H72       -3.9543     3.7699  2599.0033 H        794 DT      0.0000
   2006 H73       -4.0294     3.7146  2600.7808 H        794 DT      0.0000
   2007 P          3.6098     7.7594  2598.9011 P.3      793 DC      0.0000
   2008 OP1        4.8649     8.3870  2599.5102 O.co2    793 DC      0.0000
   2009 OP2        2.8602     8.7920  2598.1193 O.co2    793 DC      0.0000
   2010 O5'        3.8832     6.3337  2598.1617 O.3      793 DC      0.0000
   2011 C5'        4.7739     5.4231  2598.8862 C.3      793 DC      0.0000
   2012 C4'        5.5449     4.6669  2597.8357 C.3      793 DC      0.0000
   2013 O4'        5.0017     3.3906  2597.5904 O.3      793 DC      0.0000
   2014 C3'        5.6330     5.3526  2596.4713 C.3      793 DC      0.0000
   2015 O3'        6.8509     5.1147  2595.7620 O.3      793 DC      0.0000
   2016 C2'        4.3838     4.7830  2595.7851 C.3      793 DC      0.0000
   2017 C1'        4.3292     3.3577  2596.3317 C.3      793 DC      0.0000
   2018 N1         2.9044     2.9683  2596.4495 N.am     793 DC      0.0000
   2019 C2         2.6199     1.6036  2596.4668 C.2      793 DC      0.0000
   2020 O2         3.5242     0.7599  2596.3981 O.2      793 DC      0.0000
   2021 N3         1.3046     1.2392  2596.5700 N.2      793 DC      0.0000
   2022 C4         0.3044     2.1561  2596.6408 C.2      793 DC      0.0000
   2023 N4        -0.9634     1.7511  2596.7427 N.pl3    793 DC      0.0000
   2024 C5         0.6223     3.5428  2596.6156 C.2      793 DC      0.0000
   2025 C6         1.9146     3.8998  2596.5220 C.2      793 DC      0.0000
   2026 H5'        5.4556     5.9878  2599.5222 H        793 DC      0.0000
   2027 H5''       4.1880     4.7301  2599.4901 H        793 DC      0.0000
   2028 H4'        6.5614     4.5297  2598.2045 H        793 DC      0.0000
   2029 H3'        5.5051     6.4267  2596.6054 H        793 DC      0.0000
   2030 H2'        4.4942     4.7853  2594.7008 H        793 DC      0.0000
   2031 H2''       3.4956     5.3413  2596.0811 H        793 DC      0.0000
   2032 H1'        4.8451     2.6792  2595.6524 H        793 DC      0.0000
   2033 H5        -0.1557     4.2899  2596.6704 H        793 DC      0.0000
   2034 H6         2.1733     4.9483  2596.5039 H        793 DC      0.0000
   2035 H41       -1.1782     0.7644  2596.7634 H        793 DC      0.0000
   2036 H42       -1.7079     2.4313  2596.7991 H        793 DC      0.0000
   2037 P          6.9978     4.9327  2594.1300 P.3      792 DA      0.0000
   2038 OP1        8.4205     5.2714  2593.7405 O.co2    792 DA      0.0000
   2039 OP2        5.9621     5.8367  2593.5599 O.co2    792 DA      0.0000
   2040 O5'        6.7982     3.3575  2593.9645 O.3      792 DA      0.0000
   2041 C5'        7.8876     2.4696  2594.4299 C.3      792 DA      0.0000
   2042 C4'        7.6861     1.2458  2593.5526 C.3      792 DA      0.0000
   2043 O4'        6.4035     0.6644  2593.8199 O.3      792 DA      0.0000
   2044 C3'        7.6593     1.5696  2592.0482 C.3      792 DA      0.0000
   2045 O3'        7.8484     0.4058  2591.2591 O.3      792 DA      0.0000
   2046 C2'        6.1792     1.9507  2591.8607 C.3      792 DA      0.0000
   2047 C1'        5.6269     0.7106  2592.6154 C.3      792 DA      0.0000
   2048 N9         4.1996     0.9775  2592.7608 N.ar     792 DA      0.0000
   2049 C8         3.6016     2.2157  2592.8337 C.ar     792 DA      0.0000
   2050 N7         2.2985     2.1575  2592.9483 N.ar     792 DA      0.0000
   2051 C5         2.0286     0.7773  2592.9419 C.ar     792 DA      0.0000
   2052 C6         0.8005     0.0674  2593.0419 C.ar     792 DA      0.0000
   2053 N6        -0.3916     0.6582  2593.1647 N.pl3    792 DA      0.0000
   2054 N1         0.9296    -1.2884  2593.0067 N.ar     792 DA      0.0000
   2055 C2         2.1392    -1.8886  2592.8878 C.ar     792 DA      0.0000
   2056 N3         3.3280    -1.2855  2592.7964 N.ar     792 DA      0.0000
   2057 C4         3.1880     0.0514  2592.8239 C.ar     792 DA      0.0000
   2058 H5'        8.8658     2.9206  2594.2631 H        792 DA      0.0000
   2059 H5''       7.7548     2.2157  2595.4815 H        792 DA      0.0000
   2060 H4'        8.4693     0.5156  2593.7566 H        792 DA      0.0000
   2061 H3'        8.3400     2.3770  2591.7786 H        792 DA      0.0000
   2062 H2'        5.9182     2.8930  2592.3424 H        792 DA      0.0000
   2063 H2''       5.8917     1.9430  2590.8094 H        792 DA      0.0000
   2064 H1'        5.7857    -0.1931  2592.0270 H        792 DA      0.0000
   2065 H8         4.1532     3.1436  2592.7996 H        792 DA      0.0000
   2066 H2         2.1424    -2.9682  2592.8646 H        792 DA      0.0000
   2067 H61       -0.4556     1.6659  2593.1895 H        792 DA      0.0000
   2068 H62       -1.2287     0.0972  2593.2328 H        792 DA      0.0000
   2069 P          8.9523     0.3691  2590.1182 P.3      791 DC      0.0000
   2070 OP1       10.2091     0.0210  2590.8985 O.co2    791 DC      0.0000
   2071 OP2        9.0588     1.6399  2589.3926 O.co2    791 DC      0.0000
   2072 O5'        8.3402    -0.8045  2589.1423 O.3      791 DC      0.0000
   2073 C5'        8.0013    -2.0790  2589.8114 C.3      791 DC      0.0000
   2074 C4'        6.7619    -2.6420  2589.1673 C.3      791 DC      0.0000
   2075 O4'        5.5537    -2.2451  2589.8045 O.3      791 DC      0.0000
   2076 C3'        6.6197    -2.2393  2587.6895 C.3      791 DC      0.0000
   2077 O3'        6.0006    -3.2298  2586.8782 O.3      791 DC      0.0000
   2078 C2'        5.6416    -1.0304  2587.8552 C.3      791 DC      0.0000
   2079 C1'        4.6473    -1.8574  2588.7508 C.3      791 DC      0.0000
   2080 N1         3.5002    -1.0208  2588.9887 N.am     791 DC      0.0000
   2081 C2         2.2953    -1.6266  2589.3058 C.2      791 DC      0.0000
   2082 O2         2.0267    -2.8251  2589.4463 O.2      791 DC      0.0000
   2083 N3         1.2063    -0.8239  2589.5040 N.2      791 DC      0.0000
   2084 C4         1.2786     0.5370  2589.3880 C.2      791 DC      0.0000
   2085 N4         0.1853     1.2850  2589.6041 N.pl3    791 DC      0.0000
   2086 C5         2.5218     1.1442  2589.0584 C.2      791 DC      0.0000
   2087 C6         3.5725     0.3380  2588.8667 C.2      791 DC      0.0000
   2088 H5'        8.8257    -2.7832  2589.6999 H        791 DC      0.0000
   2089 H5''       7.8143    -1.8985  2590.8700 H        791 DC      0.0000
   2090 H4'        6.8241    -3.7292  2589.2141 H        791 DC      0.0000
   2091 H3'        7.5749    -1.9229  2587.2705 H        791 DC      0.0000
   2092 H2'        6.0865    -0.1802  2588.3723 H        791 DC      0.0000
   2093 H2''       5.1897    -0.7393  2586.9069 H        791 DC      0.0000
   2094 H1'        4.3326    -2.7475  2588.2058 H        791 DC      0.0000
   2095 H5         2.6144     2.2163  2588.9663 H        791 DC      0.0000
   2096 H6         4.5212     0.7820  2588.6034 H        791 DC      0.0000
   2097 H41       -0.6900     0.8422  2589.8446 H        791 DC      0.0000
   2098 H42        0.2379     2.2906  2589.5262 H        791 DC      0.0000
@<TRIPOS>BOND
     1      9     31 1
     2     39     63 1
     3    101    126 1
     4    134    158 1
     5      1      2 1
     6      1      3 1
     7      1      4 1
     8      4      5 1
     9      5      6 1
    10      6      7 1
    11      6      8 1
    12      7     11 1
    13      8      9 1
    14      8     10 1
    15     10     11 1
    16     11     12 1
    17     12     13 am
    18     12     19 1
    19     13     14 2
    20     13     15 1
    21     15     16 2
    22     16     17 2
    23     16     18 2
    24     18     19 2
    25     31     32 1
    26     31     33 1
    27     31     34 1
    28     34     35 1
    29     35     36 1
    30     36     37 1
    31     36     38 1
    32     37     41 1
    33     38     39 1
    34     38     40 1
    35     40     41 1
    36     41     42 1
    37     42     43 ar
    38     42     51 ar
    39     43     44 ar
    40     44     45 ar
    41     45     46 ar
    42     45     51 ar
    43     46     47 1
    44     46     48 ar
    45     48     49 ar
    46     49     50 ar
    47     50     51 ar
    48     63     64 1
    49     63     65 1
    50     63     66 1
    51     66     67 1
    52     67     68 1
    53     68     69 1
    54     68     70 1
    55     69     73 1
    56     70     71 1
    57     70     72 1
    58     72     73 1
    59     73     74 1
    60     74     75 am
    61     74     81 1
    62     75     76 2
    63     75     77 1
    64     77     78 2
    65     78     79 2
    66     78     80 2
    67     80     81 2
    68     93     94 1
    69     93     95 1
    70     93     96 1
    71     96     97 1
    72     97     98 1
    73     98     99 1
    74     98    100 1
    75     99    103 1
    76    100    101 1
    77    100    102 1
    78    102    103 1
    79    103    104 1
    80    104    105 ar
    81    104    114 ar
    82    105    106 ar
    83    106    107 ar
    84    107    108 1
    85    107    114 ar
    86    108    109 2
    87    108    110 am
    88    110    111 1
    89    111    112 2
    90    111    113 2
    91    113    114 1
    92    126    127 1
    93    126    128 1
    94    126    129 1
    95    129    130 1
    96    130    131 1
    97    131    132 1
    98    131    133 1
    99    132    136 1
   100    133    134 1
   101    133    135 1
   102    135    136 1
   103    136    137 1
   104    137    138 am
   105    137    145 1
   106    138    139 2
   107    138    140 am
   108    140    141 am
   109    141    142 2
   110    141    143 1
   111    143    144 1
   112    143    145 2
   113    158    159 1
   114    158    160 1
   115    158    161 1
   116    161    162 1
   117    162    163 1
   118    163    164 1
   119    163    165 1
   120    164    168 1
   121    165    166 1
   122    165    167 1
   123    167    168 1
   124    168    169 1
   125    169    170 ar
   126    169    179 ar
   127    170    171 ar
   128    171    172 ar
   129    172    173 1
   130    172    179 ar
   131    173    174 2
   132    173    175 am
   133    175    176 1
   134    176    177 2
   135    176    178 2
   136    178    179 1
   137     20      5 1
   138     21      5 1
   139     22      6 1
   140     23      8 1
   141     24     10 1
   142     25     10 1
   143     26     11 1
   144     27     18 1
   145     28     19 1
   146     52     35 1
   147     53     35 1
   148     54     36 1
   149     55     38 1
   150     56     40 1
   151     57     40 1
   152     58     41 1
   153     59     43 1
   154     60     49 1
   155     82     67 1
   156     83     67 1
   157     84     68 1
   158     85     70 1
   159     86     72 1
   160     87     72 1
   161     88     73 1
   162     89     80 1
   163     90     81 1
   164    115     97 1
   165    116     97 1
   166    117     98 1
   167    118    100 1
   168    119    102 1
   169    120    102 1
   170    121    103 1
   171    122    105 1
   172    123    110 1
   173    146    130 1
   174    147    130 1
   175    148    131 1
   176    149    133 1
   177    150    135 1
   178    151    135 1
   179    152    136 1
   180    153    140 1
   181    154    145 1
   182    180    162 1
   183    181    162 1
   184    182    163 1
   185    183    165 1
   186    184    167 1
   187    185    167 1
   188    186    168 1
   189    187    170 1
   190    188    175 1
   191     29     17 1
   192     30     17 1
   193     91     79 1
   194     92     79 1
   195    124    112 1
   196    125    112 1
   197    189    177 1
   198    190    177 1
   199     61     47 1
   200     62     47 1
   201    155    144 1
   202    156    144 1
   203    157    144 1
   204     71    191 1
   205     93    805 1
   206    199    224 1
   207    232    256 1
   208    264    289 1
   209    297    321 1
   210    329    353 1
   211    361    385 1
   212    393    417 1
   213    425    447 1
   214    455    479 1
   215    517    542 1
   216    550    574 1
   217    582    607 1
   218    615    639 1
   219    647    671 1
   220    679    703 1
   221    711    735 1
   222    743    765 1
   223    773    797 1
   224    191    192 1
   225    191    193 1
   226    191    194 1
   227    194    195 1
   228    195    196 1
   229    196    197 1
   230    196    198 1
   231    197    201 1
   232    198    199 1
   233    198    200 1
   234    200    201 1
   235    201    202 1
   236    202    203 ar
   237    202    212 ar
   238    203    204 ar
   239    204    205 ar
   240    205    206 1
   241    205    212 ar
   242    206    207 2
   243    206    208 am
   244    208    209 1
   245    209    210 2
   246    209    211 2
   247    211    212 1
   248    224    225 1
   249    224    226 1
   250    224    227 1
   251    227    228 1
   252    228    229 1
   253    229    230 1
   254    229    231 1
   255    230    234 1
   256    231    232 1
   257    231    233 1
   258    233    234 1
   259    234    235 1
   260    235    236 am
   261    235    243 1
   262    236    237 2
   263    236    238 am
   264    238    239 am
   265    239    240 2
   266    239    241 1
   267    241    242 1
   268    241    243 2
   269    256    257 1
   270    256    258 1
   271    256    259 1
   272    259    260 1
   273    260    261 1
   274    261    262 1
   275    261    263 1
   276    262    266 1
   277    263    264 1
   278    263    265 1
   279    265    266 1
   280    266    267 1
   281    267    268 ar
   282    267    277 ar
   283    268    269 ar
   284    269    270 ar
   285    270    271 1
   286    270    277 ar
   287    271    272 2
   288    271    273 am
   289    273    274 1
   290    274    275 2
   291    274    276 2
   292    276    277 1
   293    289    290 1
   294    289    291 1
   295    289    292 1
   296    292    293 1
   297    293    294 1
   298    294    295 1
   299    294    296 1
   300    295    299 1
   301    296    297 1
   302    296    298 1
   303    298    299 1
   304    299    300 1
   305    300    301 ar
   306    300    309 ar
   307    301    302 ar
   308    302    303 ar
   309    303    304 ar
   310    303    309 ar
   311    304    305 1
   312    304    306 ar
   313    306    307 ar
   314    307    308 ar
   315    308    309 ar
   316    321    322 1
   317    321    323 1
   318    321    324 1
   319    324    325 1
   320    325    326 1
   321    326    327 1
   322    326    328 1
   323    327    331 1
   324    328    329 1
   325    328    330 1
   326    330    331 1
   327    331    332 1
   328    332    333 ar
   329    332    341 ar
   330    333    334 ar
   331    334    335 ar
   332    335    336 ar
   333    335    341 ar
   334    336    337 1
   335    336    338 ar
   336    338    339 ar
   337    339    340 ar
   338    340    341 ar
   339    353    354 1
   340    353    355 1
   341    353    356 1
   342    356    357 1
   343    357    358 1
   344    358    359 1
   345    358    360 1
   346    359    363 1
   347    360    361 1
   348    360    362 1
   349    362    363 1
   350    363    364 1
   351    364    365 am
   352    364    372 1
   353    365    366 2
   354    365    367 am
   355    367    368 am
   356    368    369 2
   357    368    370 1
   358    370    371 1
   359    370    372 2
   360    385    386 1
   361    385    387 1
   362    385    388 1
   363    388    389 1
   364    389    390 1
   365    390    391 1
   366    390    392 1
   367    391    395 1
   368    392    393 1
   369    392    394 1
   370    394    395 1
   371    395    396 1
   372    396    397 am
   373    396    404 1
   374    397    398 2
   375    397    399 am
   376    399    400 am
   377    400    401 2
   378    400    402 1
   379    402    403 1
   380    402    404 2
   381    417    418 1
   382    417    419 1
   383    417    420 1
   384    420    421 1
   385    421    422 1
   386    422    423 1
   387    422    424 1
   388    423    427 1
   389    424    425 1
   390    424    426 1
   391    426    427 1
   392    427    428 1
   393    428    429 am
   394    428    435 1
   395    429    430 2
   396    429    431 1
   397    431    432 2
   398    432    433 2
   399    432    434 2
   400    434    435 2
   401    447    448 1
   402    447    449 1
   403    447    450 1
   404    450    451 1
   405    451    452 1
   406    452    453 1
   407    452    454 1
   408    453    457 1
   409    454    455 1
   410    454    456 1
   411    456    457 1
   412    457    458 1
   413    458    459 ar
   414    458    467 ar
   415    459    460 ar
   416    460    461 ar
   417    461    462 ar
   418    461    467 ar
   419    462    463 1
   420    462    464 ar
   421    464    465 ar
   422    465    466 ar
   423    466    467 ar
   424    479    480 1
   425    479    481 1
   426    479    482 1
   427    482    483 1
   428    483    484 1
   429    484    485 1
   430    484    486 1
   431    485    489 1
   432    486    487 1
   433    486    488 1
   434    488    489 1
   435    489    490 1
   436    490    491 am
   437    490    497 1
   438    491    492 2
   439    491    493 1
   440    493    494 2
   441    494    495 2
   442    494    496 2
   443    496    497 2
   444    509    510 1
   445    509    511 1
   446    509    512 1
   447    512    513 1
   448    513    514 1
   449    514    515 1
   450    514    516 1
   451    515    519 1
   452    516    517 1
   453    516    518 1
   454    518    519 1
   455    519    520 1
   456    520    521 ar
   457    520    530 ar
   458    521    522 ar
   459    522    523 ar
   460    523    524 1
   461    523    530 ar
   462    524    525 2
   463    524    526 am
   464    526    527 1
   465    527    528 2
   466    527    529 2
   467    529    530 1
   468    542    543 1
   469    542    544 1
   470    542    545 1
   471    545    546 1
   472    546    547 1
   473    547    548 1
   474    547    549 1
   475    548    552 1
   476    549    550 1
   477    549    551 1
   478    551    552 1
   479    552    553 1
   480    553    554 am
   481    553    561 1
   482    554    555 2
   483    554    556 am
   484    556    557 am
   485    557    558 2
   486    557    559 1
   487    559    560 1
   488    559    561 2
   489    574    575 1
   490    574    576 1
   491    574    577 1
   492    577    578 1
   493    578    579 1
   494    579    580 1
   495    579    581 1
   496    580    584 1
   497    581    582 1
   498    581    583 1
   499    583    584 1
   500    584    585 1
   501    585    586 ar
   502    585    595 ar
   503    586    587 ar
   504    587    588 ar
   505    588    589 1
   506    588    595 ar
   507    589    590 2
   508    589    591 am
   509    591    592 1
   510    592    593 2
   511    592    594 2
   512    594    595 1
   513    607    608 1
   514    607    609 1
   515    607    610 1
   516    610    611 1
   517    611    612 1
   518    612    613 1
   519    612    614 1
   520    613    617 1
   521    614    615 1
   522    614    616 1
   523    616    617 1
   524    617    618 1
   525    618    619 ar
   526    618    627 ar
   527    619    620 ar
   528    620    621 ar
   529    621    622 ar
   530    621    627 ar
   531    622    623 1
   532    622    624 ar
   533    624    625 ar
   534    625    626 ar
   535    626    627 ar
   536    639    640 1
   537    639    641 1
   538    639    642 1
   539    642    643 1
   540    643    644 1
   541    644    645 1
   542    644    646 1
   543    645    649 1
   544    646    647 1
   545    646    648 1
   546    648    649 1
   547    649    650 1
   548    650    651 ar
   549    650    659 ar
   550    651    652 ar
   551    652    653 ar
   552    653    654 ar
   553    653    659 ar
   554    654    655 1
   555    654    656 ar
   556    656    657 ar
   557    657    658 ar
   558    658    659 ar
   559    671    672 1
   560    671    673 1
   561    671    674 1
   562    674    675 1
   563    675    676 1
   564    676    677 1
   565    676    678 1
   566    677    681 1
   567    678    679 1
   568    678    680 1
   569    680    681 1
   570    681    682 1
   571    682    683 am
   572    682    690 1
   573    683    684 2
   574    683    685 am
   575    685    686 am
   576    686    687 2
   577    686    688 1
   578    688    689 1
   579    688    690 2
   580    703    704 1
   581    703    705 1
   582    703    706 1
   583    706    707 1
   584    707    708 1
   585    708    709 1
   586    708    710 1
   587    709    713 1
   588    710    711 1
   589    710    712 1
   590    712    713 1
   591    713    714 1
   592    714    715 am
   593    714    722 1
   594    715    716 2
   595    715    717 am
   596    717    718 am
   597    718    719 2
   598    718    720 1
   599    720    721 1
   600    720    722 2
   601    735    736 1
   602    735    737 1
   603    735    738 1
   604    738    739 1
   605    739    740 1
   606    740    741 1
   607    740    742 1
   608    741    745 1
   609    742    743 1
   610    742    744 1
   611    744    745 1
   612    745    746 1
   613    746    747 am
   614    746    753 1
   615    747    748 2
   616    747    749 1
   617    749    750 2
   618    750    751 2
   619    750    752 2
   620    752    753 2
   621    765    766 1
   622    765    767 1
   623    765    768 1
   624    768    769 1
   625    769    770 1
   626    770    771 1
   627    770    772 1
   628    771    775 1
   629    772    773 1
   630    772    774 1
   631    774    775 1
   632    775    776 1
   633    776    777 ar
   634    776    785 ar
   635    777    778 ar
   636    778    779 ar
   637    779    780 ar
   638    779    785 ar
   639    780    781 1
   640    780    782 ar
   641    782    783 ar
   642    783    784 ar
   643    784    785 ar
   644    797    798 1
   645    797    799 1
   646    797    800 1
   647    800    801 1
   648    801    802 1
   649    802    803 1
   650    802    804 1
   651    803    807 1
   652    804    805 1
   653    804    806 1
   654    806    807 1
   655    807    808 1
   656    808    809 am
   657    808    815 1
   658    809    810 2
   659    809    811 1
   660    811    812 2
   661    812    813 2
   662    812    814 2
   663    814    815 2
   664    213    195 1
   665    214    195 1
   666    215    196 1
   667    216    198 1
   668    217    200 1
   669    218    200 1
   670    219    201 1
   671    220    203 1
   672    221    208 1
   673    244    228 1
   674    245    228 1
   675    246    229 1
   676    247    231 1
   677    248    233 1
   678    249    233 1
   679    250    234 1
   680    251    238 1
   681    252    243 1
   682    278    260 1
   683    279    260 1
   684    280    261 1
   685    281    263 1
   686    282    265 1
   687    283    265 1
   688    284    266 1
   689    285    268 1
   690    286    273 1
   691    310    293 1
   692    311    293 1
   693    312    294 1
   694    313    296 1
   695    314    298 1
   696    315    298 1
   697    316    299 1
   698    317    301 1
   699    318    307 1
   700    342    325 1
   701    343    325 1
   702    344    326 1
   703    345    328 1
   704    346    330 1
   705    347    330 1
   706    348    331 1
   707    349    333 1
   708    350    339 1
   709    373    357 1
   710    374    357 1
   711    375    358 1
   712    376    360 1
   713    377    362 1
   714    378    362 1
   715    379    363 1
   716    380    367 1
   717    381    372 1
   718    405    389 1
   719    406    389 1
   720    407    390 1
   721    408    392 1
   722    409    394 1
   723    410    394 1
   724    411    395 1
   725    412    399 1
   726    413    404 1
   727    436    421 1
   728    437    421 1
   729    438    422 1
   730    439    424 1
   731    440    426 1
   732    441    426 1
   733    442    427 1
   734    443    434 1
   735    444    435 1
   736    468    451 1
   737    469    451 1
   738    470    452 1
   739    471    454 1
   740    472    456 1
   741    473    456 1
   742    474    457 1
   743    475    459 1
   744    476    465 1
   745    498    483 1
   746    499    483 1
   747    500    484 1
   748    501    486 1
   749    502    488 1
   750    503    488 1
   751    504    489 1
   752    505    496 1
   753    506    497 1
   754    531    513 1
   755    532    513 1
   756    533    514 1
   757    534    516 1
   758    535    518 1
   759    536    518 1
   760    537    519 1
   761    538    521 1
   762    539    526 1
   763    562    546 1
   764    563    546 1
   765    564    547 1
   766    565    549 1
   767    566    551 1
   768    567    551 1
   769    568    552 1
   770    569    556 1
   771    570    561 1
   772    596    578 1
   773    597    578 1
   774    598    579 1
   775    599    581 1
   776    600    583 1
   777    601    583 1
   778    602    584 1
   779    603    586 1
   780    604    591 1
   781    628    611 1
   782    629    611 1
   783    630    612 1
   784    631    614 1
   785    632    616 1
   786    633    616 1
   787    634    617 1
   788    635    619 1
   789    636    625 1
   790    660    643 1
   791    661    643 1
   792    662    644 1
   793    663    646 1
   794    664    648 1
   795    665    648 1
   796    666    649 1
   797    667    651 1
   798    668    657 1
   799    691    675 1
   800    692    675 1
   801    693    676 1
   802    694    678 1
   803    695    680 1
   804    696    680 1
   805    697    681 1
   806    698    685 1
   807    699    690 1
   808    723    707 1
   809    724    707 1
   810    725    708 1
   811    726    710 1
   812    727    712 1
   813    728    712 1
   814    729    713 1
   815    730    717 1
   816    731    722 1
   817    754    739 1
   818    755    739 1
   819    756    740 1
   820    757    742 1
   821    758    744 1
   822    759    744 1
   823    760    745 1
   824    761    752 1
   825    762    753 1
   826    786    769 1
   827    787    769 1
   828    788    770 1
   829    789    772 1
   830    790    774 1
   831    791    774 1
   832    792    775 1
   833    793    777 1
   834    794    783 1
   835    816    801 1
   836    817    801 1
   837    818    802 1
   838    819    804 1
   839    820    806 1
   840    821    806 1
   841    822    807 1
   842    823    814 1
   843    824    815 1
   844    222    210 1
   845    223    210 1
   846    287    275 1
   847    288    275 1
   848    445    433 1
   849    446    433 1
   850    507    495 1
   851    508    495 1
   852    540    528 1
   853    541    528 1
   854    605    593 1
   855    606    593 1
   856    763    751 1
   857    764    751 1
   858    825    813 1
   859    826    813 1
   860    319    305 1
   861    320    305 1
   862    351    337 1
   863    352    337 1
   864    477    463 1
   865    478    463 1
   866    637    623 1
   867    638    623 1
   868    669    655 1
   869    670    655 1
   870    795    781 1
   871    796    781 1
   872    253    242 1
   873    254    242 1
   874    255    242 1
   875    382    371 1
   876    383    371 1
   877    384    371 1
   878    414    403 1
   879    415    403 1
   880    416    403 1
   881    571    560 1
   882    572    560 1
   883    573    560 1
   884    700    689 1
   885    701    689 1
   886    702    689 1
   887    732    721 1
   888    733    721 1
   889    734    721 1
   890    487    827 1
   891    509   1441 1
   892    835    860 1
   893    868    892 1
   894    900    925 1
   895    933    957 1
   896    965    989 1
   897    997   1021 1
   898   1029   1053 1
   899   1061   1083 1
   900   1091   1115 1
   901   1153   1178 1
   902   1186   1210 1
   903   1218   1243 1
   904   1251   1275 1
   905   1283   1307 1
   906   1315   1339 1
   907   1347   1371 1
   908   1379   1401 1
   909   1409   1433 1
   910    827    828 1
   911    827    829 1
   912    827    830 1
   913    830    831 1
   914    831    832 1
   915    832    833 1
   916    832    834 1
   917    833    837 1
   918    834    835 1
   919    834    836 1
   920    836    837 1
   921    837    838 1
   922    838    839 ar
   923    838    848 ar
   924    839    840 ar
   925    840    841 ar
   926    841    842 1
   927    841    848 ar
   928    842    843 2
   929    842    844 am
   930    844    845 1
   931    845    846 2
   932    845    847 2
   933    847    848 1
   934    860    861 1
   935    860    862 1
   936    860    863 1
   937    863    864 1
   938    864    865 1
   939    865    866 1
   940    865    867 1
   941    866    870 1
   942    867    868 1
   943    867    869 1
   944    869    870 1
   945    870    871 1
   946    871    872 am
   947    871    879 1
   948    872    873 2
   949    872    874 am
   950    874    875 am
   951    875    876 2
   952    875    877 1
   953    877    878 1
   954    877    879 2
   955    892    893 1
   956    892    894 1
   957    892    895 1
   958    895    896 1
   959    896    897 1
   960    897    898 1
   961    897    899 1
   962    898    902 1
   963    899    900 1
   964    899    901 1
   965    901    902 1
   966    902    903 1
   967    903    904 ar
   968    903    913 ar
   969    904    905 ar
   970    905    906 ar
   971    906    907 1
   972    906    913 ar
   973    907    908 2
   974    907    909 am
   975    909    910 1
   976    910    911 2
   977    910    912 2
   978    912    913 1
   979    925    926 1
   980    925    927 1
   981    925    928 1
   982    928    929 1
   983    929    930 1
   984    930    931 1
   985    930    932 1
   986    931    935 1
   987    932    933 1
   988    932    934 1
   989    934    935 1
   990    935    936 1
   991    936    937 ar
   992    936    945 ar
   993    937    938 ar
   994    938    939 ar
   995    939    940 ar
   996    939    945 ar
   997    940    941 1
   998    940    942 ar
   999    942    943 ar
  1000    943    944 ar
  1001    944    945 ar
  1002    957    958 1
  1003    957    959 1
  1004    957    960 1
  1005    960    961 1
  1006    961    962 1
  1007    962    963 1
  1008    962    964 1
  1009    963    967 1
  1010    964    965 1
  1011    964    966 1
  1012    966    967 1
  1013    967    968 1
  1014    968    969 ar
  1015    968    977 ar
  1016    969    970 ar
  1017    970    971 ar
  1018    971    972 ar
  1019    971    977 ar
  1020    972    973 1
  1021    972    974 ar
  1022    974    975 ar
  1023    975    976 ar
  1024    976    977 ar
  1025    989    990 1
  1026    989    991 1
  1027    989    992 1
  1028    992    993 1
  1029    993    994 1
  1030    994    995 1
  1031    994    996 1
  1032    995    999 1
  1033    996    997 1
  1034    996    998 1
  1035    998    999 1
  1036    999   1000 1
  1037   1000   1001 am
  1038   1000   1008 1
  1039   1001   1002 2
  1040   1001   1003 am
  1041   1003   1004 am
  1042   1004   1005 2
  1043   1004   1006 1
  1044   1006   1007 1
  1045   1006   1008 2
  1046   1021   1022 1
  1047   1021   1023 1
  1048   1021   1024 1
  1049   1024   1025 1
  1050   1025   1026 1
  1051   1026   1027 1
  1052   1026   1028 1
  1053   1027   1031 1
  1054   1028   1029 1
  1055   1028   1030 1
  1056   1030   1031 1
  1057   1031   1032 1
  1058   1032   1033 am
  1059   1032   1040 1
  1060   1033   1034 2
  1061   1033   1035 am
  1062   1035   1036 am
  1063   1036   1037 2
  1064   1036   1038 1
  1065   1038   1039 1
  1066   1038   1040 2
  1067   1053   1054 1
  1068   1053   1055 1
  1069   1053   1056 1
  1070   1056   1057 1
  1071   1057   1058 1
  1072   1058   1059 1
  1073   1058   1060 1
  1074   1059   1063 1
  1075   1060   1061 1
  1076   1060   1062 1
  1077   1062   1063 1
  1078   1063   1064 1
  1079   1064   1065 am
  1080   1064   1071 1
  1081   1065   1066 2
  1082   1065   1067 1
  1083   1067   1068 2
  1084   1068   1069 2
  1085   1068   1070 2
  1086   1070   1071 2
  1087   1083   1084 1
  1088   1083   1085 1
  1089   1083   1086 1
  1090   1086   1087 1
  1091   1087   1088 1
  1092   1088   1089 1
  1093   1088   1090 1
  1094   1089   1093 1
  1095   1090   1091 1
  1096   1090   1092 1
  1097   1092   1093 1
  1098   1093   1094 1
  1099   1094   1095 ar
  1100   1094   1103 ar
  1101   1095   1096 ar
  1102   1096   1097 ar
  1103   1097   1098 ar
  1104   1097   1103 ar
  1105   1098   1099 1
  1106   1098   1100 ar
  1107   1100   1101 ar
  1108   1101   1102 ar
  1109   1102   1103 ar
  1110   1115   1116 1
  1111   1115   1117 1
  1112   1115   1118 1
  1113   1118   1119 1
  1114   1119   1120 1
  1115   1120   1121 1
  1116   1120   1122 1
  1117   1121   1125 1
  1118   1122   1123 1
  1119   1122   1124 1
  1120   1124   1125 1
  1121   1125   1126 1
  1122   1126   1127 am
  1123   1126   1133 1
  1124   1127   1128 2
  1125   1127   1129 1
  1126   1129   1130 2
  1127   1130   1131 2
  1128   1130   1132 2
  1129   1132   1133 2
  1130   1145   1146 1
  1131   1145   1147 1
  1132   1145   1148 1
  1133   1148   1149 1
  1134   1149   1150 1
  1135   1150   1151 1
  1136   1150   1152 1
  1137   1151   1155 1
  1138   1152   1153 1
  1139   1152   1154 1
  1140   1154   1155 1
  1141   1155   1156 1
  1142   1156   1157 ar
  1143   1156   1166 ar
  1144   1157   1158 ar
  1145   1158   1159 ar
  1146   1159   1160 1
  1147   1159   1166 ar
  1148   1160   1161 2
  1149   1160   1162 am
  1150   1162   1163 1
  1151   1163   1164 2
  1152   1163   1165 2
  1153   1165   1166 1
  1154   1178   1179 1
  1155   1178   1180 1
  1156   1178   1181 1
  1157   1181   1182 1
  1158   1182   1183 1
  1159   1183   1184 1
  1160   1183   1185 1
  1161   1184   1188 1
  1162   1185   1186 1
  1163   1185   1187 1
  1164   1187   1188 1
  1165   1188   1189 1
  1166   1189   1190 am
  1167   1189   1197 1
  1168   1190   1191 2
  1169   1190   1192 am
  1170   1192   1193 am
  1171   1193   1194 2
  1172   1193   1195 1
  1173   1195   1196 1
  1174   1195   1197 2
  1175   1210   1211 1
  1176   1210   1212 1
  1177   1210   1213 1
  1178   1213   1214 1
  1179   1214   1215 1
  1180   1215   1216 1
  1181   1215   1217 1
  1182   1216   1220 1
  1183   1217   1218 1
  1184   1217   1219 1
  1185   1219   1220 1
  1186   1220   1221 1
  1187   1221   1222 ar
  1188   1221   1231 ar
  1189   1222   1223 ar
  1190   1223   1224 ar
  1191   1224   1225 1
  1192   1224   1231 ar
  1193   1225   1226 2
  1194   1225   1227 am
  1195   1227   1228 1
  1196   1228   1229 2
  1197   1228   1230 2
  1198   1230   1231 1
  1199   1243   1244 1
  1200   1243   1245 1
  1201   1243   1246 1
  1202   1246   1247 1
  1203   1247   1248 1
  1204   1248   1249 1
  1205   1248   1250 1
  1206   1249   1253 1
  1207   1250   1251 1
  1208   1250   1252 1
  1209   1252   1253 1
  1210   1253   1254 1
  1211   1254   1255 ar
  1212   1254   1263 ar
  1213   1255   1256 ar
  1214   1256   1257 ar
  1215   1257   1258 ar
  1216   1257   1263 ar
  1217   1258   1259 1
  1218   1258   1260 ar
  1219   1260   1261 ar
  1220   1261   1262 ar
  1221   1262   1263 ar
  1222   1275   1276 1
  1223   1275   1277 1
  1224   1275   1278 1
  1225   1278   1279 1
  1226   1279   1280 1
  1227   1280   1281 1
  1228   1280   1282 1
  1229   1281   1285 1
  1230   1282   1283 1
  1231   1282   1284 1
  1232   1284   1285 1
  1233   1285   1286 1
  1234   1286   1287 ar
  1235   1286   1295 ar
  1236   1287   1288 ar
  1237   1288   1289 ar
  1238   1289   1290 ar
  1239   1289   1295 ar
  1240   1290   1291 1
  1241   1290   1292 ar
  1242   1292   1293 ar
  1243   1293   1294 ar
  1244   1294   1295 ar
  1245   1307   1308 1
  1246   1307   1309 1
  1247   1307   1310 1
  1248   1310   1311 1
  1249   1311   1312 1
  1250   1312   1313 1
  1251   1312   1314 1
  1252   1313   1317 1
  1253   1314   1315 1
  1254   1314   1316 1
  1255   1316   1317 1
  1256   1317   1318 1
  1257   1318   1319 am
  1258   1318   1326 1
  1259   1319   1320 2
  1260   1319   1321 am
  1261   1321   1322 am
  1262   1322   1323 2
  1263   1322   1324 1
  1264   1324   1325 1
  1265   1324   1326 2
  1266   1339   1340 1
  1267   1339   1341 1
  1268   1339   1342 1
  1269   1342   1343 1
  1270   1343   1344 1
  1271   1344   1345 1
  1272   1344   1346 1
  1273   1345   1349 1
  1274   1346   1347 1
  1275   1346   1348 1
  1276   1348   1349 1
  1277   1349   1350 1
  1278   1350   1351 am
  1279   1350   1358 1
  1280   1351   1352 2
  1281   1351   1353 am
  1282   1353   1354 am
  1283   1354   1355 2
  1284   1354   1356 1
  1285   1356   1357 1
  1286   1356   1358 2
  1287   1371   1372 1
  1288   1371   1373 1
  1289   1371   1374 1
  1290   1374   1375 1
  1291   1375   1376 1
  1292   1376   1377 1
  1293   1376   1378 1
  1294   1377   1381 1
  1295   1378   1379 1
  1296   1378   1380 1
  1297   1380   1381 1
  1298   1381   1382 1
  1299   1382   1383 am
  1300   1382   1389 1
  1301   1383   1384 2
  1302   1383   1385 1
  1303   1385   1386 2
  1304   1386   1387 2
  1305   1386   1388 2
  1306   1388   1389 2
  1307   1401   1402 1
  1308   1401   1403 1
  1309   1401   1404 1
  1310   1404   1405 1
  1311   1405   1406 1
  1312   1406   1407 1
  1313   1406   1408 1
  1314   1407   1411 1
  1315   1408   1409 1
  1316   1408   1410 1
  1317   1410   1411 1
  1318   1411   1412 1
  1319   1412   1413 ar
  1320   1412   1421 ar
  1321   1413   1414 ar
  1322   1414   1415 ar
  1323   1415   1416 ar
  1324   1415   1421 ar
  1325   1416   1417 1
  1326   1416   1418 ar
  1327   1418   1419 ar
  1328   1419   1420 ar
  1329   1420   1421 ar
  1330   1433   1434 1
  1331   1433   1435 1
  1332   1433   1436 1
  1333   1436   1437 1
  1334   1437   1438 1
  1335   1438   1439 1
  1336   1438   1440 1
  1337   1439   1443 1
  1338   1440   1441 1
  1339   1440   1442 1
  1340   1442   1443 1
  1341   1443   1444 1
  1342   1444   1445 am
  1343   1444   1451 1
  1344   1445   1446 2
  1345   1445   1447 1
  1346   1447   1448 2
  1347   1448   1449 2
  1348   1448   1450 2
  1349   1450   1451 2
  1350    849    831 1
  1351    850    831 1
  1352    851    832 1
  1353    852    834 1
  1354    853    836 1
  1355    854    836 1
  1356    855    837 1
  1357    856    839 1
  1358    857    844 1
  1359    880    864 1
  1360    881    864 1
  1361    882    865 1
  1362    883    867 1
  1363    884    869 1
  1364    885    869 1
  1365    886    870 1
  1366    887    874 1
  1367    888    879 1
  1368    914    896 1
  1369    915    896 1
  1370    916    897 1
  1371    917    899 1
  1372    918    901 1
  1373    919    901 1
  1374    920    902 1
  1375    921    904 1
  1376    922    909 1
  1377    946    929 1
  1378    947    929 1
  1379    948    930 1
  1380    949    932 1
  1381    950    934 1
  1382    951    934 1
  1383    952    935 1
  1384    953    937 1
  1385    954    943 1
  1386    978    961 1
  1387    979    961 1
  1388    980    962 1
  1389    981    964 1
  1390    982    966 1
  1391    983    966 1
  1392    984    967 1
  1393    985    969 1
  1394    986    975 1
  1395   1009    993 1
  1396   1010    993 1
  1397   1011    994 1
  1398   1012    996 1
  1399   1013    998 1
  1400   1014    998 1
  1401   1015    999 1
  1402   1016   1003 1
  1403   1017   1008 1
  1404   1041   1025 1
  1405   1042   1025 1
  1406   1043   1026 1
  1407   1044   1028 1
  1408   1045   1030 1
  1409   1046   1030 1
  1410   1047   1031 1
  1411   1048   1035 1
  1412   1049   1040 1
  1413   1072   1057 1
  1414   1073   1057 1
  1415   1074   1058 1
  1416   1075   1060 1
  1417   1076   1062 1
  1418   1077   1062 1
  1419   1078   1063 1
  1420   1079   1070 1
  1421   1080   1071 1
  1422   1104   1087 1
  1423   1105   1087 1
  1424   1106   1088 1
  1425   1107   1090 1
  1426   1108   1092 1
  1427   1109   1092 1
  1428   1110   1093 1
  1429   1111   1095 1
  1430   1112   1101 1
  1431   1134   1119 1
  1432   1135   1119 1
  1433   1136   1120 1
  1434   1137   1122 1
  1435   1138   1124 1
  1436   1139   1124 1
  1437   1140   1125 1
  1438   1141   1132 1
  1439   1142   1133 1
  1440   1167   1149 1
  1441   1168   1149 1
  1442   1169   1150 1
  1443   1170   1152 1
  1444   1171   1154 1
  1445   1172   1154 1
  1446   1173   1155 1
  1447   1174   1157 1
  1448   1175   1162 1
  1449   1198   1182 1
  1450   1199   1182 1
  1451   1200   1183 1
  1452   1201   1185 1
  1453   1202   1187 1
  1454   1203   1187 1
  1455   1204   1188 1
  1456   1205   1192 1
  1457   1206   1197 1
  1458   1232   1214 1
  1459   1233   1214 1
  1460   1234   1215 1
  1461   1235   1217 1
  1462   1236   1219 1
  1463   1237   1219 1
  1464   1238   1220 1
  1465   1239   1222 1
  1466   1240   1227 1
  1467   1264   1247 1
  1468   1265   1247 1
  1469   1266   1248 1
  1470   1267   1250 1
  1471   1268   1252 1
  1472   1269   1252 1
  1473   1270   1253 1
  1474   1271   1255 1
  1475   1272   1261 1
  1476   1296   1279 1
  1477   1297   1279 1
  1478   1298   1280 1
  1479   1299   1282 1
  1480   1300   1284 1
  1481   1301   1284 1
  1482   1302   1285 1
  1483   1303   1287 1
  1484   1304   1293 1
  1485   1327   1311 1
  1486   1328   1311 1
  1487   1329   1312 1
  1488   1330   1314 1
  1489   1331   1316 1
  1490   1332   1316 1
  1491   1333   1317 1
  1492   1334   1321 1
  1493   1335   1326 1
  1494   1359   1343 1
  1495   1360   1343 1
  1496   1361   1344 1
  1497   1362   1346 1
  1498   1363   1348 1
  1499   1364   1348 1
  1500   1365   1349 1
  1501   1366   1353 1
  1502   1367   1358 1
  1503   1390   1375 1
  1504   1391   1375 1
  1505   1392   1376 1
  1506   1393   1378 1
  1507   1394   1380 1
  1508   1395   1380 1
  1509   1396   1381 1
  1510   1397   1388 1
  1511   1398   1389 1
  1512   1422   1405 1
  1513   1423   1405 1
  1514   1424   1406 1
  1515   1425   1408 1
  1516   1426   1410 1
  1517   1427   1410 1
  1518   1428   1411 1
  1519   1429   1413 1
  1520   1430   1419 1
  1521   1452   1437 1
  1522   1453   1437 1
  1523   1454   1438 1
  1524   1455   1440 1
  1525   1456   1442 1
  1526   1457   1442 1
  1527   1458   1443 1
  1528   1459   1450 1
  1529   1460   1451 1
  1530    858    846 1
  1531    859    846 1
  1532    923    911 1
  1533    924    911 1
  1534   1081   1069 1
  1535   1082   1069 1
  1536   1143   1131 1
  1537   1144   1131 1
  1538   1176   1164 1
  1539   1177   1164 1
  1540   1241   1229 1
  1541   1242   1229 1
  1542   1399   1387 1
  1543   1400   1387 1
  1544   1461   1449 1
  1545   1462   1449 1
  1546    955    941 1
  1547    956    941 1
  1548    987    973 1
  1549    988    973 1
  1550   1113   1099 1
  1551   1114   1099 1
  1552   1273   1259 1
  1553   1274   1259 1
  1554   1305   1291 1
  1555   1306   1291 1
  1556   1431   1417 1
  1557   1432   1417 1
  1558    889    878 1
  1559    890    878 1
  1560    891    878 1
  1561   1018   1007 1
  1562   1019   1007 1
  1563   1020   1007 1
  1564   1050   1039 1
  1565   1051   1039 1
  1566   1052   1039 1
  1567   1207   1196 1
  1568   1208   1196 1
  1569   1209   1196 1
  1570   1336   1325 1
  1571   1337   1325 1
  1572   1338   1325 1
  1573   1368   1357 1
  1574   1369   1357 1
  1575   1370   1357 1
  1576   1123   1463 1
  1577   1145   2077 1
  1578   1471   1496 1
  1579   1504   1528 1
  1580   1536   1561 1
  1581   1569   1593 1
  1582   1601   1625 1
  1583   1633   1657 1
  1584   1665   1689 1
  1585   1697   1719 1
  1586   1727   1751 1
  1587   1789   1814 1
  1588   1822   1846 1
  1589   1854   1879 1
  1590   1887   1911 1
  1591   1919   1943 1
  1592   1951   1975 1
  1593   1983   2007 1
  1594   2015   2037 1
  1595   2045   2069 1
  1596   1463   1464 1
  1597   1463   1465 1
  1598   1463   1466 1
  1599   1466   1467 1
  1600   1467   1468 1
  1601   1468   1469 1
  1602   1468   1470 1
  1603   1469   1473 1
  1604   1470   1471 1
  1605   1470   1472 1
  1606   1472   1473 1
  1607   1473   1474 1
  1608   1474   1475 ar
  1609   1474   1484 ar
  1610   1475   1476 ar
  1611   1476   1477 ar
  1612   1477   1478 1
  1613   1477   1484 ar
  1614   1478   1479 2
  1615   1478   1480 am
  1616   1480   1481 1
  1617   1481   1482 2
  1618   1481   1483 2
  1619   1483   1484 1
  1620   1496   1497 1
  1621   1496   1498 1
  1622   1496   1499 1
  1623   1499   1500 1
  1624   1500   1501 1
  1625   1501   1502 1
  1626   1501   1503 1
  1627   1502   1506 1
  1628   1503   1504 1
  1629   1503   1505 1
  1630   1505   1506 1
  1631   1506   1507 1
  1632   1507   1508 am
  1633   1507   1515 1
  1634   1508   1509 2
  1635   1508   1510 am
  1636   1510   1511 am
  1637   1511   1512 2
  1638   1511   1513 1
  1639   1513   1514 1
  1640   1513   1515 2
  1641   1528   1529 1
  1642   1528   1530 1
  1643   1528   1531 1
  1644   1531   1532 1
  1645   1532   1533 1
  1646   1533   1534 1
  1647   1533   1535 1
  1648   1534   1538 1
  1649   1535   1536 1
  1650   1535   1537 1
  1651   1537   1538 1
  1652   1538   1539 1
  1653   1539   1540 ar
  1654   1539   1549 ar
  1655   1540   1541 ar
  1656   1541   1542 ar
  1657   1542   1543 1
  1658   1542   1549 ar
  1659   1543   1544 2
  1660   1543   1545 am
  1661   1545   1546 1
  1662   1546   1547 2
  1663   1546   1548 2
  1664   1548   1549 1
  1665   1561   1562 1
  1666   1561   1563 1
  1667   1561   1564 1
  1668   1564   1565 1
  1669   1565   1566 1
  1670   1566   1567 1
  1671   1566   1568 1
  1672   1567   1571 1
  1673   1568   1569 1
  1674   1568   1570 1
  1675   1570   1571 1
  1676   1571   1572 1
  1677   1572   1573 ar
  1678   1572   1581 ar
  1679   1573   1574 ar
  1680   1574   1575 ar
  1681   1575   1576 ar
  1682   1575   1581 ar
  1683   1576   1577 1
  1684   1576   1578 ar
  1685   1578   1579 ar
  1686   1579   1580 ar
  1687   1580   1581 ar
  1688   1593   1594 1
  1689   1593   1595 1
  1690   1593   1596 1
  1691   1596   1597 1
  1692   1597   1598 1
  1693   1598   1599 1
  1694   1598   1600 1
  1695   1599   1603 1
  1696   1600   1601 1
  1697   1600   1602 1
  1698   1602   1603 1
  1699   1603   1604 1
  1700   1604   1605 ar
  1701   1604   1613 ar
  1702   1605   1606 ar
  1703   1606   1607 ar
  1704   1607   1608 ar
  1705   1607   1613 ar
  1706   1608   1609 1
  1707   1608   1610 ar
  1708   1610   1611 ar
  1709   1611   1612 ar
  1710   1612   1613 ar
  1711   1625   1626 1
  1712   1625   1627 1
  1713   1625   1628 1
  1714   1628   1629 1
  1715   1629   1630 1
  1716   1630   1631 1
  1717   1630   1632 1
  1718   1631   1635 1
  1719   1632   1633 1
  1720   1632   1634 1
  1721   1634   1635 1
  1722   1635   1636 1
  1723   1636   1637 am
  1724   1636   1644 1
  1725   1637   1638 2
  1726   1637   1639 am
  1727   1639   1640 am
  1728   1640   1641 2
  1729   1640   1642 1
  1730   1642   1643 1
  1731   1642   1644 2
  1732   1657   1658 1
  1733   1657   1659 1
  1734   1657   1660 1
  1735   1660   1661 1
  1736   1661   1662 1
  1737   1662   1663 1
  1738   1662   1664 1
  1739   1663   1667 1
  1740   1664   1665 1
  1741   1664   1666 1
  1742   1666   1667 1
  1743   1667   1668 1
  1744   1668   1669 am
  1745   1668   1676 1
  1746   1669   1670 2
  1747   1669   1671 am
  1748   1671   1672 am
  1749   1672   1673 2
  1750   1672   1674 1
  1751   1674   1675 1
  1752   1674   1676 2
  1753   1689   1690 1
  1754   1689   1691 1
  1755   1689   1692 1
  1756   1692   1693 1
  1757   1693   1694 1
  1758   1694   1695 1
  1759   1694   1696 1
  1760   1695   1699 1
  1761   1696   1697 1
  1762   1696   1698 1
  1763   1698   1699 1
  1764   1699   1700 1
  1765   1700   1701 am
  1766   1700   1707 1
  1767   1701   1702 2
  1768   1701   1703 1
  1769   1703   1704 2
  1770   1704   1705 2
  1771   1704   1706 2
  1772   1706   1707 2
  1773   1719   1720 1
  1774   1719   1721 1
  1775   1719   1722 1
  1776   1722   1723 1
  1777   1723   1724 1
  1778   1724   1725 1
  1779   1724   1726 1
  1780   1725   1729 1
  1781   1726   1727 1
  1782   1726   1728 1
  1783   1728   1729 1
  1784   1729   1730 1
  1785   1730   1731 ar
  1786   1730   1739 ar
  1787   1731   1732 ar
  1788   1732   1733 ar
  1789   1733   1734 ar
  1790   1733   1739 ar
  1791   1734   1735 1
  1792   1734   1736 ar
  1793   1736   1737 ar
  1794   1737   1738 ar
  1795   1738   1739 ar
  1796   1751   1752 1
  1797   1751   1753 1
  1798   1751   1754 1
  1799   1754   1755 1
  1800   1755   1756 1
  1801   1756   1757 1
  1802   1756   1758 1
  1803   1757   1761 1
  1804   1758   1759 1
  1805   1758   1760 1
  1806   1760   1761 1
  1807   1761   1762 1
  1808   1762   1763 am
  1809   1762   1769 1
  1810   1763   1764 2
  1811   1763   1765 1
  1812   1765   1766 2
  1813   1766   1767 2
  1814   1766   1768 2
  1815   1768   1769 2
  1816   1781   1782 1
  1817   1781   1783 1
  1818   1781   1784 1
  1819   1784   1785 1
  1820   1785   1786 1
  1821   1786   1787 1
  1822   1786   1788 1
  1823   1787   1791 1
  1824   1788   1789 1
  1825   1788   1790 1
  1826   1790   1791 1
  1827   1791   1792 1
  1828   1792   1793 ar
  1829   1792   1802 ar
  1830   1793   1794 ar
  1831   1794   1795 ar
  1832   1795   1796 1
  1833   1795   1802 ar
  1834   1796   1797 2
  1835   1796   1798 am
  1836   1798   1799 1
  1837   1799   1800 2
  1838   1799   1801 2
  1839   1801   1802 1
  1840   1814   1815 1
  1841   1814   1816 1
  1842   1814   1817 1
  1843   1817   1818 1
  1844   1818   1819 1
  1845   1819   1820 1
  1846   1819   1821 1
  1847   1820   1824 1
  1848   1821   1822 1
  1849   1821   1823 1
  1850   1823   1824 1
  1851   1824   1825 1
  1852   1825   1826 am
  1853   1825   1833 1
  1854   1826   1827 2
  1855   1826   1828 am
  1856   1828   1829 am
  1857   1829   1830 2
  1858   1829   1831 1
  1859   1831   1832 1
  1860   1831   1833 2
  1861   1846   1847 1
  1862   1846   1848 1
  1863   1846   1849 1
  1864   1849   1850 1
  1865   1850   1851 1
  1866   1851   1852 1
  1867   1851   1853 1
  1868   1852   1856 1
  1869   1853   1854 1
  1870   1853   1855 1
  1871   1855   1856 1
  1872   1856   1857 1
  1873   1857   1858 ar
  1874   1857   1867 ar
  1875   1858   1859 ar
  1876   1859   1860 ar
  1877   1860   1861 1
  1878   1860   1867 ar
  1879   1861   1862 2
  1880   1861   1863 am
  1881   1863   1864 1
  1882   1864   1865 2
  1883   1864   1866 2
  1884   1866   1867 1
  1885   1879   1880 1
  1886   1879   1881 1
  1887   1879   1882 1
  1888   1882   1883 1
  1889   1883   1884 1
  1890   1884   1885 1
  1891   1884   1886 1
  1892   1885   1889 1
  1893   1886   1887 1
  1894   1886   1888 1
  1895   1888   1889 1
  1896   1889   1890 1
  1897   1890   1891 ar
  1898   1890   1899 ar
  1899   1891   1892 ar
  1900   1892   1893 ar
  1901   1893   1894 ar
  1902   1893   1899 ar
  1903   1894   1895 1
  1904   1894   1896 ar
  1905   1896   1897 ar
  1906   1897   1898 ar
  1907   1898   1899 ar
  1908   1911   1912 1
  1909   1911   1913 1
  1910   1911   1914 1
  1911   1914   1915 1
  1912   1915   1916 1
  1913   1916   1917 1
  1914   1916   1918 1
  1915   1917   1921 1
  1916   1918   1919 1
  1917   1918   1920 1
  1918   1920   1921 1
  1919   1921   1922 1
  1920   1922   1923 ar
  1921   1922   1931 ar
  1922   1923   1924 ar
  1923   1924   1925 ar
  1924   1925   1926 ar
  1925   1925   1931 ar
  1926   1926   1927 1
  1927   1926   1928 ar
  1928   1928   1929 ar
  1929   1929   1930 ar
  1930   1930   1931 ar
  1931   1943   1944 1
  1932   1943   1945 1
  1933   1943   1946 1
  1934   1946   1947 1
  1935   1947   1948 1
  1936   1948   1949 1
  1937   1948   1950 1
  1938   1949   1953 1
  1939   1950   1951 1
  1940   1950   1952 1
  1941   1952   1953 1
  1942   1953   1954 1
  1943   1954   1955 am
  1944   1954   1962 1
  1945   1955   1956 2
  1946   1955   1957 am
  1947   1957   1958 am
  1948   1958   1959 2
  1949   1958   1960 1
  1950   1960   1961 1
  1951   1960   1962 2
  1952   1975   1976 1
  1953   1975   1977 1
  1954   1975   1978 1
  1955   1978   1979 1
  1956   1979   1980 1
  1957   1980   1981 1
  1958   1980   1982 1
  1959   1981   1985 1
  1960   1982   1983 1
  1961   1982   1984 1
  1962   1984   1985 1
  1963   1985   1986 1
  1964   1986   1987 am
  1965   1986   1994 1
  1966   1987   1988 2
  1967   1987   1989 am
  1968   1989   1990 am
  1969   1990   1991 2
  1970   1990   1992 1
  1971   1992   1993 1
  1972   1992   1994 2
  1973   2007   2008 1
  1974   2007   2009 1
  1975   2007   2010 1
  1976   2010   2011 1
  1977   2011   2012 1
  1978   2012   2013 1
  1979   2012   2014 1
  1980   2013   2017 1
  1981   2014   2015 1
  1982   2014   2016 1
  1983   2016   2017 1
  1984   2017   2018 1
  1985   2018   2019 am
  1986   2018   2025 1
  1987   2019   2020 2
  1988   2019   2021 1
  1989   2021   2022 2
  1990   2022   2023 2
  1991   2022   2024 2
  1992   2024   2025 2
  1993   2037   2038 1
  1994   2037   2039 1
  1995   2037   2040 1
  1996   2040   2041 1
  1997   2041   2042 1
  1998   2042   2043 1
  1999   2042   2044 1
  2000   2043   2047 1
  2001   2044   2045 1
  2002   2044   2046 1
  2003   2046   2047 1
  2004   2047   2048 1
  2005   2048   2049 ar
  2006   2048   2057 ar
  2007   2049   2050 ar
  2008   2050   2051 ar
  2009   2051   2052 ar
  2010   2051   2057 ar
  2011   2052   2053 1
  2012   2052   2054 ar
  2013   2054   2055 ar
  2014   2055   2056 ar
  2015   2056   2057 ar
  2016   2069   2070 1
  2017   2069   2071 1
  2018   2069   2072 1
  2019   2072   2073 1
  2020   2073   2074 1
  2021   2074   2075 1
  2022   2074   2076 1
  2023   2075   2079 1
  2024   2076   2077 1
  2025   2076   2078 1
  2026   2078   2079 1
  2027   2079   2080 1
  2028   2080   2081 am
  2029   2080   2087 1
  2030   2081   2082 2
  2031   2081   2083 1
  2032   2083   2084 2
  2033   2084   2085 2
  2034   2084   2086 2
  2035   2086   2087 2
  2036   1485   1467 1
  2037   1486   1467 1
  2038   1487   1468 1
  2039   1488   1470 1
  2040   1489   1472 1
  2041   1490   1472 1
  2042   1491   1473 1
  2043   1492   1475 1
  2044   1493   1480 1
  2045   1516   1500 1
  2046   1517   1500 1
  2047   1518   1501 1
  2048   1519   1503 1
  2049   1520   1505 1
  2050   1521   1505 1
  2051   1522   1506 1
  2052   1523   1510 1
  2053   1524   1515 1
  2054   1550   1532 1
  2055   1551   1532 1
  2056   1552   1533 1
  2057   1553   1535 1
  2058   1554   1537 1
  2059   1555   1537 1
  2060   1556   1538 1
  2061   1557   1540 1
  2062   1558   1545 1
  2063   1582   1565 1
  2064   1583   1565 1
  2065   1584   1566 1
  2066   1585   1568 1
  2067   1586   1570 1
  2068   1587   1570 1
  2069   1588   1571 1
  2070   1589   1573 1
  2071   1590   1579 1
  2072   1614   1597 1
  2073   1615   1597 1
  2074   1616   1598 1
  2075   1617   1600 1
  2076   1618   1602 1
  2077   1619   1602 1
  2078   1620   1603 1
  2079   1621   1605 1
  2080   1622   1611 1
  2081   1645   1629 1
  2082   1646   1629 1
  2083   1647   1630 1
  2084   1648   1632 1
  2085   1649   1634 1
  2086   1650   1634 1
  2087   1651   1635 1
  2088   1652   1639 1
  2089   1653   1644 1
  2090   1677   1661 1
  2091   1678   1661 1
  2092   1679   1662 1
  2093   1680   1664 1
  2094   1681   1666 1
  2095   1682   1666 1
  2096   1683   1667 1
  2097   1684   1671 1
  2098   1685   1676 1
  2099   1708   1693 1
  2100   1709   1693 1
  2101   1710   1694 1
  2102   1711   1696 1
  2103   1712   1698 1
  2104   1713   1698 1
  2105   1714   1699 1
  2106   1715   1706 1
  2107   1716   1707 1
  2108   1740   1723 1
  2109   1741   1723 1
  2110   1742   1724 1
  2111   1743   1726 1
  2112   1744   1728 1
  2113   1745   1728 1
  2114   1746   1729 1
  2115   1747   1731 1
  2116   1748   1737 1
  2117   1770   1755 1
  2118   1771   1755 1
  2119   1772   1756 1
  2120   1773   1758 1
  2121   1774   1760 1
  2122   1775   1760 1
  2123   1776   1761 1
  2124   1777   1768 1
  2125   1778   1769 1
  2126   1803   1785 1
  2127   1804   1785 1
  2128   1805   1786 1
  2129   1806   1788 1
  2130   1807   1790 1
  2131   1808   1790 1
  2132   1809   1791 1
  2133   1810   1793 1
  2134   1811   1798 1
  2135   1834   1818 1
  2136   1835   1818 1
  2137   1836   1819 1
  2138   1837   1821 1
  2139   1838   1823 1
  2140   1839   1823 1
  2141   1840   1824 1
  2142   1841   1828 1
  2143   1842   1833 1
  2144   1868   1850 1
  2145   1869   1850 1
  2146   1870   1851 1
  2147   1871   1853 1
  2148   1872   1855 1
  2149   1873   1855 1
  2150   1874   1856 1
  2151   1875   1858 1
  2152   1876   1863 1
  2153   1900   1883 1
  2154   1901   1883 1
  2155   1902   1884 1
  2156   1903   1886 1
  2157   1904   1888 1
  2158   1905   1888 1
  2159   1906   1889 1
  2160   1907   1891 1
  2161   1908   1897 1
  2162   1932   1915 1
  2163   1933   1915 1
  2164   1934   1916 1
  2165   1935   1918 1
  2166   1936   1920 1
  2167   1937   1920 1
  2168   1938   1921 1
  2169   1939   1923 1
  2170   1940   1929 1
  2171   1963   1947 1
  2172   1964   1947 1
  2173   1965   1948 1
  2174   1966   1950 1
  2175   1967   1952 1
  2176   1968   1952 1
  2177   1969   1953 1
  2178   1970   1957 1
  2179   1971   1962 1
  2180   1995   1979 1
  2181   1996   1979 1
  2182   1997   1980 1
  2183   1998   1982 1
  2184   1999   1984 1
  2185   2000   1984 1
  2186   2001   1985 1
  2187   2002   1989 1
  2188   2003   1994 1
  2189   2026   2011 1
  2190   2027   2011 1
  2191   2028   2012 1
  2192   2029   2014 1
  2193   2030   2016 1
  2194   2031   2016 1
  2195   2032   2017 1
  2196   2033   2024 1
  2197   2034   2025 1
  2198   2058   2041 1
  2199   2059   2041 1
  2200   2060   2042 1
  2201   2061   2044 1
  2202   2062   2046 1
  2203   2063   2046 1
  2204   2064   2047 1
  2205   2065   2049 1
  2206   2066   2055 1
  2207   2088   2073 1
  2208   2089   2073 1
  2209   2090   2074 1
  2210   2091   2076 1
  2211   2092   2078 1
  2212   2093   2078 1
  2213   2094   2079 1
  2214   2095   2086 1
  2215   2096   2087 1
  2216   1494   1482 1
  2217   1495   1482 1
  2218   1559   1547 1
  2219   1560   1547 1
  2220   1717   1705 1
  2221   1718   1705 1
  2222   1779   1767 1
  2223   1780   1767 1
  2224   1812   1800 1
  2225   1813   1800 1
  2226   1877   1865 1
  2227   1878   1865 1
  2228   2035   2023 1
  2229   2036   2023 1
  2230   2097   2085 1
  2231   2098   2085 1
  2232   1591   1577 1
  2233   1592   1577 1
  2234   1623   1609 1
  2235   1624   1609 1
  2236   1749   1735 1
  2237   1750   1735 1
  2238   1909   1895 1
  2239   1910   1895 1
  2240   1941   1927 1
  2241   1942   1927 1
  2242   2067   2053 1
  2243   2068   2053 1
  2244   1525   1514 1
  2245   1526   1514 1
  2246   1527   1514 1
  2247   1654   1643 1
  2248   1655   1643 1
  2249   1656   1643 1
  2250   1686   1675 1
  2251   1687   1675 1
  2252   1688   1675 1
  2253   1843   1832 1
  2254   1844   1832 1
  2255   1845   1832 1
  2256   1972   1961 1
  2257   1973   1961 1
  2258   1974   1961 1
  2259   2004   1993 1
  2260   2005   1993 1
  2261   2006   1993 1
@<TRIPOS>MOLECULE
dna-seg-24-bp34
2162 2330 1 0 0
BIOPOLYMER
NO_CHARGES


@<TRIPOS>ATOM
      1 P         -9.9804    -0.8790  2623.4774 P.3      801 DG      0.0000
      2 OP1      -11.3426    -0.2906  2623.4759 O.co2    801 DG      0.0000
      3 OP2       -9.1687    -0.1142  2624.5331 O.co2    801 DG      0.0000
      4 O5'       -9.8792    -2.4568  2623.6558 O.3      801 DG      0.0000
      5 C5'       -9.6443    -3.4708  2622.6558 C.3      801 DG      0.0000
      6 C4'       -8.5385    -4.3775  2623.1546 C.3      801 DG      0.0000
      7 O4'       -7.2640    -3.9402  2622.7354 O.3      801 DG      0.0000
      8 C3'       -8.4425    -4.6232  2624.6468 C.3      801 DG      0.0000
      9 O3'       -8.4505    -6.0424  2624.9588 O.3      801 DG      0.0000
     10 C2'       -7.1647    -3.9230  2625.0687 C.3      801 DG      0.0000
     11 C1'       -6.3268    -3.9283  2623.8130 C.3      801 DG      0.0000
     12 N9        -5.4526    -2.7417  2623.7840 N.ar     801 DG      0.0000
     13 C8        -5.7650    -1.4224  2624.0129 C.ar     801 DG      0.0000
     14 N7        -4.7403    -0.6049  2623.9231 N.ar     801 DG      0.0000
     15 C5        -3.6746    -1.4433  2623.6061 C.ar     801 DG      0.0000
     16 C6        -2.3011    -1.1796  2623.3802 C.2      801 DG      0.0000
     17 O6        -1.7197    -0.0943  2623.4015 O.2      801 DG      0.0000
     18 N1        -1.5358    -2.2780  2623.0987 N.am     801 DG      0.0000
     19 C2        -2.0182    -3.4779  2623.0381 C.2      801 DG      0.0000
     20 N2        -1.0999    -4.3133  2622.7413 N.pl3    801 DG      0.0000
     21 N3        -3.3532    -3.8383  2623.2468 N.2      801 DG      0.0000
     22 C4        -4.0970    -2.7566  2623.5194 C.ar     801 DG      0.0000
     23 H5'      -10.5537    -4.0505  2622.4971 H        801 DG      0.0000
     24 H5''      -9.3403    -3.0010  2621.7204 H        801 DG      0.0000
     25 H4'       -8.7013    -5.3499  2622.6899 H        801 DG      0.0000
     26 H3'       -9.2889    -4.1461  2625.1408 H        801 DG      0.0000
     27 H2'       -7.3694    -2.9036  2625.3957 H        801 DG      0.0000
     28 H2''      -6.6674    -4.4836  2625.8602 H        801 DG      0.0000
     29 H1'       -5.7192    -4.8327  2623.7811 H        801 DG      0.0000
     30 H8        -6.7650    -1.0875  2624.2459 H        801 DG      0.0000
     31 H1        -0.5487    -2.1468  2622.9303 H        801 DG      0.0000
     32 H21       -0.1530    -3.9928  2622.5969 H        801 DG      0.0000
     33 H22       -1.3201    -5.2948  2622.6508 H        801 DG      0.0000
     34 P         -8.0804    -6.6035  2626.3873 P.3      802 DT      0.0000
     35 OP1       -8.9280    -7.7394  2626.8990 O.co2    802 DT      0.0000
     36 OP2       -8.4216    -5.4162  2627.3060 O.co2    802 DT      0.0000
     37 O5'       -6.5495    -6.8449  2626.4159 O.3      802 DT      0.0000
     38 C5'       -5.9500    -8.1619  2626.2719 C.3      802 DT      0.0000
     39 C4'       -4.4577    -7.9103  2626.3294 C.3      802 DT      0.0000
     40 O4'       -4.1329    -6.5654  2626.0543 O.3      802 DT      0.0000
     41 C3'       -3.7778    -8.2068  2627.6421 C.3      802 DT      0.0000
     42 O3'       -2.8633    -9.2968  2627.4539 O.3      802 DT      0.0000
     43 C2'       -3.0480    -6.9223  2628.0344 C.3      802 DT      0.0000
     44 C1'       -2.8465    -6.2904  2626.6816 C.3      802 DT      0.0000
     45 N1        -2.7095    -4.8370  2626.7783 N.am     802 DT      0.0000
     46 C2        -1.4634    -4.3069  2626.5803 C.2      802 DT      0.0000
     47 O2        -0.4798    -5.0041  2626.3422 O.2      802 DT      0.0000
     48 N3        -1.3450    -2.9455  2626.6614 N.am     802 DT      0.0000
     49 C4        -2.3933    -2.1305  2626.9173 C.2      802 DT      0.0000
     50 O4        -2.1298    -0.9004  2626.9626 O.2      802 DT      0.0000
     51 C5        -3.6904    -2.7032  2627.1170 C.2      802 DT      0.0000
     52 C7        -4.8756    -1.8374  2627.3969 C.3      802 DT      0.0000
     53 C6        -3.7969    -4.0357  2627.0355 C.2      802 DT      0.0000
     54 H5'       -6.2613    -8.8173  2627.0853 H        802 DT      0.0000
     55 H5''      -6.2226    -8.5977  2625.3107 H        802 DT      0.0000
     56 H4'       -3.9872    -8.5285  2625.5649 H        802 DT      0.0000
     57 H3'       -4.5185    -8.4642  2628.3992 H        802 DT      0.0000
     58 H2'       -3.6596    -6.2953  2628.6832 H        802 DT      0.0000
     59 H2''      -2.0904    -7.1481  2628.5036 H        802 DT      0.0000
     60 H1'       -2.0192    -6.7447  2626.1363 H        802 DT      0.0000
     61 H3        -0.4342    -2.5314  2626.5239 H        802 DT      0.0000
     62 H6        -4.7647    -4.4940  2627.1759 H        802 DT      0.0000
     63 H71       -5.4736    -1.7354  2626.4914 H        802 DT      0.0000
     64 H72       -4.5377    -0.8534  2627.7217 H        802 DT      0.0000
     65 H73       -5.4799    -2.2916  2628.1822 H        802 DT      0.0000
     66 P         -2.7946   -10.2983  2628.7339 P.3      803 DG      0.0000
     67 OP1       -2.6249   -11.6327  2628.0188 O.co2    803 DG      0.0000
     68 OP2       -4.0305   -10.1844  2629.4874 O.co2    803 DG      0.0000
     69 O5'       -1.4083    -9.6892  2629.3434 O.3      803 DG      0.0000
     70 C5'       -0.4250    -9.5252  2628.2528 C.3      803 DG      0.0000
     71 C4'        0.6922    -8.6693  2628.7728 C.3      803 DG      0.0000
     72 O4'        0.5570    -7.2849  2628.5923 O.3      803 DG      0.0000
     73 C3'        0.9596    -8.8968  2630.2809 C.3      803 DG      0.0000
     74 O3'        2.3613    -9.2240  2630.4397 O.3      803 DG      0.0000
     75 C2'        0.4895    -7.6143  2630.9335 C.3      803 DG      0.0000
     76 C1'        0.7961    -6.5851  2629.8519 C.3      803 DG      0.0000
     77 N9        -0.0149    -5.3743  2630.0214 N.ar     803 DG      0.0000
     78 C8        -1.3365    -5.2699  2630.3576 C.ar     803 DG      0.0000
     79 N7        -1.7845    -4.0367  2630.4434 N.ar     803 DG      0.0000
     80 C5        -0.6659    -3.2749  2630.1134 C.ar     803 DG      0.0000
     81 C6        -0.4946    -1.8642  2630.0190 C.2      803 DG      0.0000
     82 O6        -1.3377    -0.9755  2630.2114 O.2      803 DG      0.0000
     83 N1         0.7798    -1.4672  2629.6840 N.am     803 DG      0.0000
     84 C2         1.7787    -2.3650  2629.4602 C.2      803 DG      0.0000
     85 N2         2.9528    -1.7992  2629.1514 N.pl3    803 DG      0.0000
     86 N3         1.6679    -3.6895  2629.5312 N.2      803 DG      0.0000
     87 C4         0.4238    -4.0795  2629.8578 C.ar     803 DG      0.0000
     88 H5'       -0.0379   -10.4988  2627.9523 H        803 DG      0.0000
     89 H5''      -0.8974    -9.0371  2627.4004 H        803 DG      0.0000
     90 H4'        1.5953    -8.9709  2628.2423 H        803 DG      0.0000
     91 H3'        0.3507    -9.7285  2630.6357 H        803 DG      0.0000
     92 H2'       -0.5769    -7.6502  2631.1564 H        803 DG      0.0000
     93 H2''       1.0649    -7.4079  2631.8359 H        803 DG      0.0000
     94 H1'        1.8504    -6.3147  2629.9108 H        803 DG      0.0000
     95 H8        -1.9622    -6.1315  2630.5383 H        803 DG      0.0000
     96 H1         0.9801    -0.4807  2629.6017 H        803 DG      0.0000
     97 H21        3.0311    -0.7935  2629.1012 H        803 DG      0.0000
     98 H22        3.7600    -2.3783  2628.9687 H        803 DG      0.0000
     99 P          2.9549    -9.6286  2631.8282 P.3      804 DA      0.0000
    100 OP1        2.9114   -11.0795  2632.1835 O.co2    804 DA      0.0000
    101 OP2        1.8943    -8.8892  2632.7239 O.co2    804 DA      0.0000
    102 O5'        4.2956    -8.8192  2632.0773 O.3      804 DA      0.0000
    103 C5'        5.1177    -8.2491  2631.0482 C.3      804 DA      0.0000
    104 C4'        5.4340    -6.8400  2631.5226 C.3      804 DA      0.0000
    105 O4'        4.2873    -6.0218  2631.4322 O.3      804 DA      0.0000
    106 C3'        5.9612    -6.7095  2632.9516 C.3      804 DA      0.0000
    107 O3'        7.1205    -5.8526  2633.0039 O.3      804 DA      0.0000
    108 C2'        4.7497    -6.1237  2633.6871 C.3      804 DA      0.0000
    109 C1'        4.2479    -5.1745  2632.6095 C.3      804 DA      0.0000
    110 N9         2.8831    -4.6893  2632.8379 N.ar     804 DA      0.0000
    111 C8         1.7281    -5.3860  2633.0536 C.ar     804 DA      0.0000
    112 N7         0.6695    -4.6245  2633.2186 N.ar     804 DA      0.0000
    113 C5         1.1619    -3.3356  2633.0784 C.ar     804 DA      0.0000
    114 C6         0.5205    -2.0785  2633.1264 C.ar     804 DA      0.0000
    115 N6        -0.7849    -1.9049  2633.3461 N.pl3    804 DA      0.0000
    116 N1         1.3376    -1.0001  2632.9366 N.ar     804 DA      0.0000
    117 C2         2.6642    -1.1536  2632.7188 C.ar     804 DA      0.0000
    118 N3         3.3355    -2.3032  2632.6606 N.ar     804 DA      0.0000
    119 C4         2.5157    -3.3536  2632.8474 C.ar     804 DA      0.0000
    120 H5'        4.5790    -8.2211  2630.1011 H        804 DA      0.0000
    121 H5''       6.0373    -8.8244  2630.9405 H        804 DA      0.0000
    122 H4'        6.1885    -6.4271  2630.8528 H        804 DA      0.0000
    123 H3'        6.2037    -7.6935  2633.3530 H        804 DA      0.0000
    124 H2'        4.0126    -6.8883  2633.9325 H        804 DA      0.0000
    125 H2''       5.0588    -5.5770  2634.5780 H        804 DA      0.0000
    126 H1'        4.9338    -4.3352  2632.4949 H        804 DA      0.0000
    127 H8         1.6883    -6.4648  2633.0857 H        804 DA      0.0000
    128 H2         3.2389    -0.2501  2632.5774 H        804 DA      0.0000
    129 H61       -1.4887    -2.6227  2633.2487 H        804 DA      0.0000
    130 H62       -1.1825    -0.9924  2633.1746 H        804 DA      0.0000
    131 P          8.2893    -6.0239  2634.1453 P.3      805 DA      0.0000
    132 OP1        9.6035    -6.3454  2633.4783 O.co2    805 DA      0.0000
    133 OP2        7.7198    -7.1042  2634.9763 O.co2    805 DA      0.0000
    134 O5'        8.4732    -4.5307  2634.6762 O.3      805 DA      0.0000
    135 C5'        8.8990    -3.4471  2633.8518 C.3      805 DA      0.0000
    136 C4'        8.2544    -2.1751  2634.3741 C.3      805 DA      0.0000
    137 O4'        6.8596    -2.2875  2634.4023 O.3      805 DA      0.0000
    138 C3'        8.6920    -1.6791  2635.7415 C.3      805 DA      0.0000
    139 O3'        9.3360    -0.4076  2635.6636 O.3      805 DA      0.0000
    140 C2'        7.4017    -1.7067  2636.5702 C.3      805 DA      0.0000
    141 C1'        6.3106    -1.6060  2635.5764 C.3      805 DA      0.0000
    142 N9         4.9981    -2.2215  2635.8444 N.ar     805 DA      0.0000
    143 C8         4.6503    -3.5456  2635.9596 C.ar     805 DA      0.0000
    144 N7         3.3655    -3.7503  2636.1289 N.ar     805 DA      0.0000
    145 C5         2.8184    -2.4718  2636.0919 C.ar     805 DA      0.0000
    146 C6         1.4762    -2.0115  2636.2124 C.ar     805 DA      0.0000
    147 N6         0.4122    -2.7813  2636.4040 N.pl3    805 DA      0.0000
    148 N1         1.3041    -0.6534  2636.1142 N.ar     805 DA      0.0000
    149 C2         2.3752     0.1709  2635.9251 C.ar     805 DA      0.0000
    150 N3         3.6485    -0.1911  2635.8173 N.ar     805 DA      0.0000
    151 C4         3.8018    -1.5274  2635.9091 C.ar     805 DA      0.0000
    152 H5'        8.5885    -3.6223  2632.8218 H        805 DA      0.0000
    153 H5''       9.9842    -3.3547  2633.8978 H        805 DA      0.0000
    154 H4'        8.4926    -1.3855  2633.6614 H        805 DA      0.0000
    155 H3'        9.3927    -2.3987  2636.1647 H        805 DA      0.0000
    156 H2'        7.3255    -2.6386  2637.1305 H        805 DA      0.0000
    157 H2''       7.3722    -0.8550  2637.2498 H        805 DA      0.0000
    158 H1'        6.1590    -0.5550  2635.3303 H        805 DA      0.0000
    159 H8         5.3717    -4.3481  2635.9148 H        805 DA      0.0000
    160 H2         2.1655     1.2281  2635.8560 H        805 DA      0.0000
    161 H61        0.4881    -3.7342  2636.7302 H        805 DA      0.0000
    162 H62       -0.5048    -2.4013  2636.2172 H        805 DA      0.0000
    163 P         10.5508     0.0967  2636.6198 P.3      806 DT      0.0000
    164 OP1       11.6214     0.8330  2635.8225 O.co2    806 DT      0.0000
    165 OP2       11.0411    -0.9908  2637.4405 O.co2    806 DT      0.0000
    166 O5'        9.8369     1.3350  2637.4336 O.3      806 DT      0.0000
    167 C5'        8.9799     2.1077  2636.4885 C.3      806 DT      0.0000
    168 C4'        7.7291     2.4038  2637.2762 C.3      806 DT      0.0000
    169 O4'        6.9010     1.2788  2637.4682 O.3      806 DT      0.0000
    170 C3'        8.0419     2.9202  2638.6928 C.3      806 DT      0.0000
    171 O3'        7.9650     4.3337  2638.6944 O.3      806 DT      0.0000
    172 C2'        7.0237     2.2209  2639.5900 C.3      806 DT      0.0000
    173 C1'        6.0455     1.6799  2638.6254 C.3      806 DT      0.0000
    174 N1         5.2345     0.5215  2638.9652 N.am     806 DT      0.0000
    175 C2         3.8660     0.7311  2639.1031 C.2      806 DT      0.0000
    176 O2         3.4118     1.8646  2639.0151 O.2      806 DT      0.0000
    177 N3         3.0718    -0.3461  2639.3571 N.am     806 DT      0.0000
    178 C4         3.5647    -1.6139  2639.4772 C.2      806 DT      0.0000
    179 O4         2.7597    -2.5657  2639.7324 O.2      806 DT      0.0000
    180 C5         4.9748    -1.8088  2639.3057 C.2      806 DT      0.0000
    181 C7         5.5661    -3.1885  2639.3932 C.3      806 DT      0.0000
    182 C6         5.7533    -0.7433  2639.0499 C.2      806 DT      0.0000
    183 H5'        9.4738     3.0314  2636.1868 H        806 DT      0.0000
    184 H5''       8.7416     1.5030  2635.6134 H        806 DT      0.0000
    185 H4'        7.1590     3.1675  2636.7471 H        806 DT      0.0000
    186 H3'        9.0479     2.6115  2638.9771 H        806 DT      0.0000
    187 H2'        7.4917     1.4208  2640.1634 H        806 DT      0.0000
    188 H2''       6.5456     2.9388  2640.2564 H        806 DT      0.0000
    189 H1'        5.3853     2.4870  2638.3081 H        806 DT      0.0000
    190 H3         2.0777    -0.2012  2639.4608 H        806 DT      0.0000
    191 H6         6.8141    -0.8880  2638.9077 H        806 DT      0.0000
    192 H71        4.7771    -3.9097  2639.6062 H        806 DT      0.0000
    193 H72        6.0420    -3.4403  2638.4454 H        806 DT      0.0000
    194 H73        6.3084    -3.2158  2640.1910 H        806 DT      0.0000
    195 P          8.3926     5.3348  2639.8011 P.3      807 DT      0.0000
    196 OP1        8.6622     6.7337  2639.1890 O.co2    807 DT      0.0000
    197 OP2        9.6111     4.7642  2640.4310 O.co2    807 DT      0.0000
    198 O5'        7.0704     5.5469  2640.6834 O.3      807 DT      0.0000
    199 C5'        6.0427     6.2871  2639.9716 C.3      807 DT      0.0000
    200 C4'        4.7354     6.0596  2640.6478 C.3      807 DT      0.0000
    201 O4'        4.3049     4.7043  2640.6245 O.3      807 DT      0.0000
    202 C3'        4.6927     6.5121  2642.1144 C.3      807 DT      0.0000
    203 O3'        3.4849     7.2005  2642.3785 O.3      807 DT      0.0000
    204 C2'        4.6914     5.1514  2642.8507 C.3      807 DT      0.0000
    205 C1'        3.7067     4.4376  2641.9472 C.3      807 DT      0.0000
    206 N1         3.6586     3.0180  2642.2449 N.am     807 DT      0.0000
    207 C2         2.4220     2.3958  2642.2997 C.2      807 DT      0.0000
    208 O2         1.4073     3.0684  2642.1113 O.2      807 DT      0.0000
    209 N3         2.3839     1.0560  2642.5656 N.am     807 DT      0.0000
    210 C4         3.5132     0.3249  2642.7726 C.2      807 DT      0.0000
    211 O4         3.4009    -0.9144  2642.9959 O.2      807 DT      0.0000
    212 C5         4.7802     0.9747  2642.7076 C.2      807 DT      0.0000
    213 C7         6.0701     0.2365  2642.9175 C.3      807 DT      0.0000
    214 C6         4.7992     2.2911  2642.4464 C.2      807 DT      0.0000
    215 H5'        6.2817     7.3506  2639.9840 H        807 DT      0.0000
    216 H5''       5.9871     5.9369  2638.9409 H        807 DT      0.0000
    217 H4'        3.9889     6.6435  2640.1093 H        807 DT      0.0000
    218 H3'        5.5642     7.1118  2642.3768 H        807 DT      0.0000
    219 H2'        5.6734     4.6783  2642.8495 H        807 DT      0.0000
    220 H2''       4.3004     5.2494  2643.8635 H        807 DT      0.0000
    221 H1'        2.7154     4.8844  2642.0228 H        807 DT      0.0000
    222 H3         1.4875     0.5926  2642.6100 H        807 DT      0.0000
    223 H6         5.7525     2.7958  2642.3934 H        807 DT      0.0000
    224 H71        5.8597    -0.8144  2643.1164 H        807 DT      0.0000
    225 H72        6.6861     0.3203  2642.0222 H        807 DT      0.0000
    226 H73        6.6015     0.6676  2643.7659 H        807 DT      0.0000
    227 P          3.0802     8.5896  2642.9864 P.3      808 DC      0.0000
    228 OP1        2.5534     9.5288  2641.9185 O.co2    808 DC      0.0000
    229 OP2        4.2704     9.0553  2643.7214 O.co2    808 DC      0.0000
    230 O5'        1.7798     8.0543  2643.8124 O.3      808 DC      0.0000
    231 C5'        0.9919     7.3404  2642.7902 C.3      808 DC      0.0000
    232 C4'       -0.2001     6.7482  2643.4867 C.3      808 DC      0.0000
    233 O4'       -0.0546     5.3840  2643.7336 O.3      808 DC      0.0000
    234 C3'       -0.6086     7.4478  2644.7781 C.3      808 DC      0.0000
    235 O3'       -1.9606     7.8795  2644.6985 O.3      808 DC      0.0000
    236 C2'       -0.2452     6.3944  2645.8269 C.3      808 DC      0.0000
    237 C1'       -0.4008     5.1008  2645.1305 C.3      808 DC      0.0000
    238 N1         0.5598     4.0439  2645.4626 N.am     808 DC      0.0000
    239 C2         0.0168     2.7866  2645.7184 C.2      808 DC      0.0000
    240 O2        -1.2043     2.6027  2645.7229 O.2      808 DC      0.0000
    241 N3         0.8909     1.7639  2645.9922 N.2      808 DC      0.0000
    242 C4         2.2408     1.9589  2645.9823 C.2      808 DC      0.0000
    243 N4         3.0037     0.9071  2646.2592 N.pl3    808 DC      0.0000
    244 C5         2.7775     3.2353  2645.7043 C.2      808 DC      0.0000
    245 C6         1.9057     4.2300  2645.4395 C.2      808 DC      0.0000
    246 H5'        0.6658     8.0356  2642.0165 H        808 DC      0.0000
    247 H5''       1.5933     6.5473  2642.3460 H        808 DC      0.0000
    248 H4'       -1.0410     6.8502  2642.8007 H        808 DC      0.0000
    249 H3'        0.0297     8.3196  2644.9214 H        808 DC      0.0000
    250 H2'        0.7825     6.5275  2646.1648 H        808 DC      0.0000
    251 H2''      -0.9306     6.4522  2646.6724 H        808 DC      0.0000
    252 H1'       -1.4246     4.7357  2645.2114 H        808 DC      0.0000
    253 H5         3.8435     3.4082  2645.7037 H        808 DC      0.0000
    254 H6         2.2914     5.2100  2645.2005 H        808 DC      0.0000
    255 H41        2.5783     0.0131  2646.4584 H        808 DC      0.0000
    256 H42        4.0092     1.0017  2646.2705 H        808 DC      0.0000
    257 P         -2.6752     8.9824  2645.6505 P.3      809 DA      0.0000
    258 OP1       -3.8232     9.5760  2644.8568 O.co2    809 DA      0.0000
    259 OP2       -1.6650    10.0031  2645.9960 O.co2    809 DA      0.0000
    260 O5'       -3.1923     8.1114  2646.9475 O.3      809 DA      0.0000
    261 C5'       -4.0048     6.9343  2646.6523 C.3      809 DA      0.0000
    262 C4'       -4.3175     6.1878  2647.9076 C.3      809 DA      0.0000
    263 O4'       -3.5008     5.0383  2648.1497 O.3      809 DA      0.0000
    264 C3'       -4.1520     6.9840  2649.2128 C.3      809 DA      0.0000
    265 O3'       -4.8968     6.3301  2650.2427 O.3      809 DA      0.0000
    266 C2'       -2.6365     6.7987  2649.4274 C.3      809 DA      0.0000
    267 C1'       -2.6191     5.2774  2649.2441 C.3      809 DA      0.0000
    268 N9        -1.2422     4.8225  2649.1498 N.ar     809 DA      0.0000
    269 C8        -0.0770     5.5286  2649.0340 C.ar     809 DA      0.0000
    270 N7         1.0209     4.7942  2649.0154 N.ar     809 DA      0.0000
    271 C5         0.5362     3.4983  2649.1229 C.ar     809 DA      0.0000
    272 C6         1.1882     2.2410  2649.1574 C.ar     809 DA      0.0000
    273 N6         2.4955     2.0725  2649.0722 N.pl3    809 DA      0.0000
    274 N1         0.3803     1.1481  2649.2900 N.ar     809 DA      0.0000
    275 C2        -0.9808     1.2766  2649.3702 C.ar     809 DA      0.0000
    276 N3        -1.6638     2.4186  2649.3403 N.ar     809 DA      0.0000
    277 C4        -0.8459     3.4927  2649.2173 C.ar     809 DA      0.0000
    278 H5'       -4.9357     7.2498  2646.1811 H        809 DA      0.0000
    279 H5''      -3.4593     6.2813  2645.9710 H        809 DA      0.0000
    280 H4'       -5.3537     5.8548  2647.8487 H        809 DA      0.0000
    281 H3'       -4.4309     8.0316  2649.0991 H        809 DA      0.0000
    282 H2'       -2.0407     7.3178  2648.6766 H        809 DA      0.0000
    283 H2''      -2.3395     7.0818  2650.4373 H        809 DA      0.0000
    284 H1'       -3.0600     4.8279  2650.1338 H        809 DA      0.0000
    285 H8        -0.0558     6.6060  2648.9630 H        809 DA      0.0000
    286 H2        -1.5536     0.3661  2649.4666 H        809 DA      0.0000
    287 H61        3.1183     1.2980  2649.2522 H        809 DA      0.0000
    288 H62        2.9792     2.9014  2648.7574 H        809 DA      0.0000
    289 P         -6.4783     6.5295  2650.3832 P.3      810 DC      0.0000
    290 OP1       -7.1189     7.0398  2649.1381 O.co2    810 DC      0.0000
    291 OP2       -6.5755     7.4983  2651.5261 O.co2    810 DC      0.0000
    292 O5'       -7.0069     5.0615  2650.6663 O.3      810 DC      0.0000
    293 C5'       -7.2288     4.1137  2649.5786 C.3      810 DC      0.0000
    294 C4'       -6.9847     2.7746  2650.2836 C.3      810 DC      0.0000
    295 O4'       -5.6126     2.7079  2650.5956 O.3      810 DC      0.0000
    296 C3'       -7.7529     2.6194  2651.5935 C.3      810 DC      0.0000
    297 O3'       -8.5067     1.3878  2651.6614 O.3      810 DC      0.0000
    298 C2'       -6.6681     2.7281  2652.6757 C.3      810 DC      0.0000
    299 C1'       -5.4844     2.1653  2651.9995 C.3      810 DC      0.0000
    300 N1        -4.1316     2.5882  2652.3523 N.am     810 DC      0.0000
    301 C2        -3.1700     1.5799  2652.3255 C.2      810 DC      0.0000
    302 O2        -3.4486     0.4055  2652.1185 O.2      810 DC      0.0000
    303 N3        -1.8824     1.9375  2652.5786 N.2      810 DC      0.0000
    304 C4        -1.5160     3.2209  2652.8119 C.2      810 DC      0.0000
    305 N4        -0.2240     3.4466  2653.0429 N.pl3    810 DC      0.0000
    306 C5        -2.5046     4.2431  2652.8185 C.2      810 DC      0.0000
    307 C6        -3.7730     3.8828  2652.5690 C.2      810 DC      0.0000
    308 H5'       -8.2464     4.1809  2649.1938 H        810 DC      0.0000
    309 H5''      -6.5033     4.2668  2648.7796 H        810 DC      0.0000
    310 H4'       -7.2445     1.9572  2649.6109 H        810 DC      0.0000
    311 H3'       -8.4405     3.4586  2651.6994 H        810 DC      0.0000
    312 H2'       -6.5010     3.7664  2652.9627 H        810 DC      0.0000
    313 H2''      -6.9337     2.1280  2653.5460 H        810 DC      0.0000
    314 H1'       -5.5440     1.0770  2651.9863 H        810 DC      0.0000
    315 H5        -2.2440     5.2722  2653.0170 H        810 DC      0.0000
    316 H6        -4.5357     4.6468  2652.5393 H        810 DC      0.0000
    317 H41        0.4325     2.6792  2653.0318 H        810 DC      0.0000
    318 H42        0.0992     4.3852  2653.2290 H        810 DC      0.0000
    319 P          8.0516    -2.6866  2654.6209 P.3      810 DG      0.0000
    320 OP1        9.4799    -3.0927  2654.7997 O.co2    810 DG      0.0000
    321 OP2        7.8619    -1.6347  2653.5361 O.co2    810 DG      0.0000
    322 O5'        7.1241    -4.0305  2654.4137 O.3      810 DG      0.0000
    323 C5'        6.2578    -4.4763  2655.5094 C.3      810 DG      0.0000
    324 C4'        4.9653    -4.9847  2654.8752 C.3      810 DG      0.0000
    325 O4'        3.9956    -3.9773  2654.7793 O.3      810 DG      0.0000
    326 C3'        5.1330    -5.5539  2653.4688 C.3      810 DG      0.0000
    327 O3'        4.3358    -6.7309  2653.2018 O.3      810 DG      0.0000
    328 C2'        4.7206    -4.3769  2652.5665 C.3      810 DG      0.0000
    329 C1'        3.5989    -3.7667  2653.3904 C.3      810 DG      0.0000
    330 N9         3.4636    -2.3257  2653.1170 N.ar     810 DG      0.0000
    331 C8         4.4654    -1.3975  2652.9604 C.ar     810 DG      0.0000
    332 N7         4.0349    -0.1834  2652.7420 N.ar     810 DG      0.0000
    333 C5         2.6515    -0.3151  2652.7668 C.ar     810 DG      0.0000
    334 C6         1.6154     0.6439  2652.6103 C.2      810 DG      0.0000
    335 O6         1.7555     1.8594  2652.4135 O.2      810 DG      0.0000
    336 N1         0.3471     0.1248  2652.6972 N.am     810 DG      0.0000
    337 C2         0.1083    -1.1912  2652.9179 C.2      810 DG      0.0000
    338 N2        -1.1716    -1.5481  2652.9812 N.pl3    810 DG      0.0000
    339 N3         1.0456    -2.1338  2653.0756 N.2      810 DG      0.0000
    340 C4         2.2898    -1.6238  2652.9923 C.ar     810 DG      0.0000
    341 H5'        6.7419    -5.2779  2656.0672 H        810 DG      0.0000
    342 H5''       6.0409    -3.6403  2656.1744 H        810 DG      0.0000
    343 H4'        4.5669    -5.7747  2655.5119 H        810 DG      0.0000
    344 H3'        6.1843    -5.7860  2653.2983 H        810 DG      0.0000
    345 H2'        5.5415    -3.6741  2652.4239 H        810 DG      0.0000
    346 H2''       4.3465    -4.7358  2651.6078 H        810 DG      0.0000
    347 H1'        2.6589    -4.2790  2653.1851 H        810 DG      0.0000
    348 H8         5.5143    -1.6493  2653.0131 H        810 DG      0.0000
    349 H1        -0.4399     0.7490  2652.5924 H        810 DG      0.0000
    350 H21       -1.8958    -0.8536  2652.8662 H        810 DG      0.0000
    351 H22       -1.4191    -2.5136  2653.1444 H        810 DG      0.0000
    352 P          3.8800    -6.9288  2651.6783 P.3      809 DT      0.0000
    353 OP1        3.6785    -8.3681  2651.2874 O.co2    809 DT      0.0000
    354 OP2        5.0478    -6.3400  2650.9778 O.co2    809 DT      0.0000
    355 O5'        2.5000    -6.1251  2651.5474 O.3      809 DT      0.0000
    356 C5'        1.2723    -6.8754  2651.8151 C.3      809 DT      0.0000
    357 C4'        0.1372    -6.2210  2651.0580 C.3      809 DT      0.0000
    358 O4'        0.2341    -4.8081  2651.0307 O.3      809 DT      0.0000
    359 C3'        0.0606    -6.6580  2649.6033 C.3      809 DT      0.0000
    360 O3'       -1.2862    -6.8212  2649.1082 O.3      809 DT      0.0000
    361 C2'        0.7965    -5.5517  2648.8805 C.3      809 DT      0.0000
    362 C1'        0.2725    -4.3561  2649.6586 C.3      809 DT      0.0000
    363 N1         1.2677    -3.2830  2649.5073 N.am     809 DT      0.0000
    364 C2         0.7888    -1.9812  2649.6140 C.2      809 DT      0.0000
    365 O2        -0.4045    -1.7715  2649.8038 O.2      809 DT      0.0000
    366 N3         1.6998    -0.9693  2649.4939 N.am     809 DT      0.0000
    367 C4         3.0229    -1.2124  2649.2763 C.2      809 DT      0.0000
    368 O4         3.7969    -0.2034  2649.1787 O.2      809 DT      0.0000
    369 C5         3.4834    -2.5559  2649.1699 C.2      809 DT      0.0000
    370 C7         4.9410    -2.8358  2648.9410 C.3      809 DT      0.0000
    371 C6         2.5891    -3.5403  2649.2917 C.2      809 DT      0.0000
    372 H5'        1.3910    -7.9063  2651.4814 H        809 DT      0.0000
    373 H5''       1.0579    -6.8586  2652.8837 H        809 DT      0.0000
    374 H4'       -0.7996    -6.4903  2651.5460 H        809 DT      0.0000
    375 H3'        0.6056    -7.5938  2649.4793 H        809 DT      0.0000
    376 H2'        1.8778    -5.6547  2648.9720 H        809 DT      0.0000
    377 H2''       0.4955    -5.5001  2647.8341 H        809 DT      0.0000
    378 H1'       -0.7120    -4.0462  2649.3079 H        809 DT      0.0000
    379 H3         1.3831    -0.0132  2649.5686 H        809 DT      0.0000
    380 H6         2.9209    -4.5654  2649.2175 H        809 DT      0.0000
    381 H71        5.4859    -1.8943  2648.8723 H        809 DT      0.0000
    382 H72        5.3329    -3.4224  2649.7719 H        809 DT      0.0000
    383 H73        5.0623    -3.3944  2648.0128 H        809 DT      0.0000
    384 P         -1.3463    -8.2858  2648.3298 P.3      808 DG      0.0000
    385 OP1       -1.8225    -9.4022  2649.2011 O.co2    808 DG      0.0000
    386 OP2        0.0785    -8.3769  2647.9243 O.co2    808 DG      0.0000
    387 O5'       -2.4871    -7.9941  2647.2490 O.3      808 DG      0.0000
    388 C5'       -3.8739    -8.0167  2647.6725 C.3      808 DG      0.0000
    389 C4'       -4.4396    -6.6748  2647.2247 C.3      808 DG      0.0000
    390 O4'       -3.5037    -5.6506  2647.4955 O.3      808 DG      0.0000
    391 C3'       -4.7832    -6.6003  2645.7370 C.3      808 DG      0.0000
    392 O3'       -6.1355    -6.2344  2645.5285 O.3      808 DG      0.0000
    393 C2'       -3.7515    -5.6473  2645.1603 C.3      808 DG      0.0000
    394 C1'       -3.3968    -4.7819  2646.3464 C.3      808 DG      0.0000
    395 N9        -2.0343    -4.2570  2646.2229 N.ar     808 DG      0.0000
    396 C8        -0.8689    -4.9519  2646.0640 C.ar     808 DG      0.0000
    397 N7         0.1940    -4.1888  2645.9860 N.ar     808 DG      0.0000
    398 C5        -0.3062    -2.8973  2646.1235 C.ar     808 DG      0.0000
    399 C6         0.3337    -1.6298  2646.1330 C.2      808 DG      0.0000
    400 O6         1.5359    -1.4063  2646.0339 O.2      808 DG      0.0000
    401 N1        -0.5119    -0.5674  2646.2819 N.am     808 DG      0.0000
    402 C2        -1.8699    -0.7280  2646.4148 C.2      808 DG      0.0000
    403 N2        -2.5784     0.3933  2646.5505 N.pl3    808 DG      0.0000
    404 N3        -2.5336    -1.8885  2646.4191 N.2      808 DG      0.0000
    405 C4        -1.6827    -2.9320  2646.2684 C.ar     808 DG      0.0000
    406 H5'       -4.4081    -8.8374  2647.1937 H        808 DG      0.0000
    407 H5''      -3.9354    -8.1087  2648.7568 H        808 DG      0.0000
    408 H4'       -5.3449    -6.4744  2647.7978 H        808 DG      0.0000
    409 H3'       -4.6231    -7.5852  2645.2984 H        808 DG      0.0000
    410 H2'       -2.8789    -6.1880  2644.7939 H        808 DG      0.0000
    411 H2''      -4.1899    -5.0447  2644.3648 H        808 DG      0.0000
    412 H1'       -4.1068    -3.9595  2646.4335 H        808 DG      0.0000
    413 H8        -0.8271    -6.0296  2646.0079 H        808 DG      0.0000
    414 H1        -0.1264     0.3661  2646.2948 H        808 DG      0.0000
    415 H21       -2.1114     1.2888  2646.5514 H        808 DG      0.0000
    416 H22       -3.5821     0.3472  2646.6522 H        808 DG      0.0000
    417 P         -6.8778    -5.1409  2644.6622 P.3      807 DA      0.0000
    418 OP1       -8.0657    -4.5652  2645.4436 O.co2    807 DA      0.0000
    419 OP2       -7.3458    -5.8507  2643.4695 O.co2    807 DA      0.0000
    420 O5'       -5.8268    -3.9085  2644.4874 O.3      807 DA      0.0000
    421 C5'       -5.8679    -2.9907  2645.6439 C.3      807 DA      0.0000
    422 C4'       -6.3251    -1.6534  2645.1161 C.3      807 DA      0.0000
    423 O4'       -5.2559    -0.7692  2644.8938 O.3      807 DA      0.0000
    424 C3'       -7.0512    -1.7585  2643.7756 C.3      807 DA      0.0000
    425 O3'       -8.1728    -0.9113  2643.7004 O.3      807 DA      0.0000
    426 C2'       -5.9283    -1.5333  2642.7790 C.3      807 DA      0.0000
    427 C1'       -4.8666    -0.7533  2643.5028 C.3      807 DA      0.0000
    428 N9        -3.5262    -1.3206  2643.2773 N.ar     807 DA      0.0000
    429 C8        -3.1628    -2.6369  2643.0910 C.ar     807 DA      0.0000
    430 N7        -1.8775    -2.8213  2642.8951 N.ar     807 DA      0.0000
    431 C5        -1.3552    -1.5369  2642.9819 C.ar     807 DA      0.0000
    432 C6        -0.0288    -1.0571  2642.8763 C.ar     807 DA      0.0000
    433 N6         1.0193    -1.8333  2642.6638 N.pl3    807 DA      0.0000
    434 N1         0.1325     0.2893  2643.0000 N.ar     807 DA      0.0000
    435 C2        -0.9320     1.1151  2643.2245 C.ar     807 DA      0.0000
    436 N3        -2.2007     0.7284  2643.3404 N.ar     807 DA      0.0000
    437 C4        -2.3483    -0.6116  2643.2043 C.ar     807 DA      0.0000
    438 H5'       -6.5696    -3.3596  2646.3919 H        807 DA      0.0000
    439 H5''      -4.8735    -2.8979  2646.0805 H        807 DA      0.0000
    440 H4'       -7.0015    -1.2051  2645.8437 H        807 DA      0.0000
    441 H3'       -7.3987    -2.7855  2643.6624 H        807 DA      0.0000
    442 H2'       -6.2933    -0.9671  2641.9221 H        807 DA      0.0000
    443 H2''      -5.5264    -2.4911  2642.4485 H        807 DA      0.0000
    444 H1'       -4.8790     0.2760  2643.1446 H        807 DA      0.0000
    445 H8        -3.8753    -3.4485  2643.1049 H        807 DA      0.0000
    446 H2        -0.7271     2.1715  2643.3158 H        807 DA      0.0000
    447 H61        1.9406    -1.5651  2642.9792 H        807 DA      0.0000
    448 H62        0.8971    -2.7101  2642.1776 H        807 DA      0.0000
    449 P         -8.7448    -0.0359  2642.5158 P.3      806 DA      0.0000
    450 OP1       -9.8511     0.9278  2643.0357 O.co2    806 DA      0.0000
    451 OP2       -9.3637    -1.0278  2641.5821 O.co2    806 DA      0.0000
    452 O5'       -7.5781     0.8958  2642.0131 O.3      806 DA      0.0000
    453 C5'       -7.4998     2.2623  2642.4689 C.3      806 DA      0.0000
    454 C4'       -6.3180     2.8950  2641.7670 C.3      806 DA      0.0000
    455 O4'       -5.2041     2.0571  2641.6462 O.3      806 DA      0.0000
    456 C3'       -6.6413     3.3943  2640.3595 C.3      806 DA      0.0000
    457 O3'       -6.5500     4.8312  2640.3280 O.3      806 DA      0.0000
    458 C2'       -5.7043     2.5862  2639.4599 C.3      806 DA      0.0000
    459 C1'       -4.5430     2.2842  2640.3577 C.3      806 DA      0.0000
    460 N9        -3.7863     1.0730  2640.0581 N.ar     806 DA      0.0000
    461 C8        -4.2410    -0.2149  2639.8633 C.ar     806 DA      0.0000
    462 N7        -3.2824    -1.0903  2639.6579 N.ar     806 DA      0.0000
    463 C5        -2.1221    -0.3445  2639.7325 C.ar     806 DA      0.0000
    464 C6        -0.7614    -0.7008  2639.5990 C.ar     806 DA      0.0000
    465 N6        -0.3404    -1.9383  2639.3558 N.pl3    806 DA      0.0000
    466 N1         0.1300     0.3313  2639.7478 N.ar     806 DA      0.0000
    467 C2        -0.2665     1.5935  2640.0003 C.ar     806 DA      0.0000
    468 N3        -1.5311     2.0032  2640.1392 N.ar     806 DA      0.0000
    469 C4        -2.4069     0.9842  2639.9920 C.ar     806 DA      0.0000
    470 H5'       -8.4158     2.7950  2642.2138 H        806 DA      0.0000
    471 H5''      -7.3459     2.2850  2643.5477 H        806 DA      0.0000
    472 H4'       -6.0132     3.7592  2642.3571 H        806 DA      0.0000
    473 H3'       -7.6676     3.1122  2640.1245 H        806 DA      0.0000
    474 H2'       -6.1843     1.6685  2639.1200 H        806 DA      0.0000
    475 H2''      -5.3822     3.1858  2638.6086 H        806 DA      0.0000
    476 H1'       -3.8758     3.1440  2640.4188 H        806 DA      0.0000
    477 H8        -5.2880    -0.4793  2639.8783 H        806 DA      0.0000
    478 H2         0.5064     2.3413  2640.0994 H        806 DA      0.0000
    479 H61        0.6050    -2.1381  2639.6498 H        806 DA      0.0000
    480 H62       -0.9249    -2.6300  2638.9085 H        806 DA      0.0000
    481 P         -6.8357     5.6007  2638.9430 P.3      805 DT      0.0000
    482 OP1       -7.0476     7.0823  2639.0012 O.co2    805 DT      0.0000
    483 OP2       -7.9944     4.8073  2638.4304 O.co2    805 DT      0.0000
    484 O5'       -5.3425     5.3697  2638.2399 O.3      805 DT      0.0000
    485 C5'       -4.3091     5.5647  2639.2522 C.3      805 DT      0.0000
    486 C4'       -3.0213     5.8982  2638.5693 C.3      805 DT      0.0000
    487 O4'       -2.1833     4.7960  2638.3889 O.3      805 DT      0.0000
    488 C3'       -3.1907     6.5550  2637.2080 C.3      805 DT      0.0000
    489 O3'       -2.2049     7.5600  2636.9407 O.3      805 DT      0.0000
    490 C2'       -3.1121     5.3102  2636.3147 C.3      805 DT      0.0000
    491 C1'       -1.9735     4.5451  2636.9547 C.3      805 DT      0.0000
    492 N1        -2.1077     3.0943  2636.7247 N.am     805 DT      0.0000
    493 C2        -0.9437     2.3561  2636.6031 C.2      805 DT      0.0000
    494 O2         0.1617     2.8990  2636.6399 O.2      805 DT      0.0000
    495 N3        -1.0563     1.0025  2636.4357 N.am     805 DT      0.0000
    496 C4        -2.2655     0.3819  2636.3872 C.2      805 DT      0.0000
    497 O4        -2.2761    -0.8716  2636.2017 O.2      805 DT      0.0000
    498 C5        -3.4499     1.1568  2636.5356 C.2      805 DT      0.0000
    499 C7        -4.8098     0.5021  2636.4835 C.3      805 DT      0.0000
    500 C6        -3.3228     2.4766  2636.7086 C.2      805 DT      0.0000
    501 H5'       -4.5948     6.3821  2639.9143 H        805 DT      0.0000
    502 H5''      -4.1887     4.6497  2639.8323 H        805 DT      0.0000
    503 H4'       -2.4915     6.6065  2639.2063 H        805 DT      0.0000
    504 H3'       -4.1863     6.9929  2637.1360 H        805 DT      0.0000
    505 H2'       -4.0405     4.7399  2636.3453 H        805 DT      0.0000
    506 H2''      -2.8630     5.5862  2635.2901 H        805 DT      0.0000
    507 H1'       -1.0042     4.9156  2636.6208 H        805 DT      0.0000
    508 H3        -0.2168     0.4482  2636.3456 H        805 DT      0.0000
    509 H6        -4.2132     3.0736  2636.8400 H        805 DT      0.0000
    510 H71       -5.2206     0.5962  2635.4783 H        805 DT      0.0000
    511 H72       -5.4754     0.9907  2637.1951 H        805 DT      0.0000
    512 H73       -4.7151    -0.5530  2636.7400 H        805 DT      0.0000
    513 P         -2.2654     8.2315  2635.4508 P.3      804 DT      0.0000
    514 OP1       -2.6517     9.7044  2635.5988 O.co2    804 DT      0.0000
    515 OP2       -3.3808     7.4813  2634.7810 O.co2    804 DT      0.0000
    516 O5'       -0.8706     8.0536  2634.7988 O.3      804 DT      0.0000
    517 C5'        0.3421     7.9996  2635.5502 C.3      804 DT      0.0000
    518 C4'        1.3195     7.1507  2634.8022 C.3      804 DT      0.0000
    519 O4'        1.0970     5.7676  2634.7452 O.3      804 DT      0.0000
    520 C3'        1.6185     7.5321  2633.3361 C.3      804 DT      0.0000
    521 O3'        3.0037     7.1891  2633.2324 O.3      804 DT      0.0000
    522 C2'        0.7225     6.5481  2632.5724 C.3      804 DT      0.0000
    523 C1'        1.1075     5.3050  2633.3481 C.3      804 DT      0.0000
    524 N1         0.1828     4.1728  2633.2419 N.am     804 DT      0.0000
    525 C2         0.7818     2.9060  2633.2413 C.2      804 DT      0.0000
    526 O2         2.0076     2.7818  2633.2844 O.2      804 DT      0.0000
    527 N3        -0.0508     1.8253  2633.1879 N.am     804 DT      0.0000
    528 C4        -1.4078     1.9415  2633.1281 C.2      804 DT      0.0000
    529 O4        -2.0944     0.8776  2633.0657 O.2      804 DT      0.0000
    530 C5        -1.9893     3.2387  2633.1364 C.2      804 DT      0.0000
    531 C7        -3.4956     3.3826  2633.0749 C.3      804 DT      0.0000
    532 C6        -1.1709     4.2929  2633.2028 C.2      804 DT      0.0000
    533 H5'        0.7451     9.0049  2635.6724 H        804 DT      0.0000
    534 H5''       0.1482     7.5604  2636.5287 H        804 DT      0.0000
    535 H4'        2.2662     7.2687  2635.3294 H        804 DT      0.0000
    536 H3'        1.4107     8.5774  2633.1074 H        804 DT      0.0000
    537 H2'        0.9853     6.4784  2631.5168 H        804 DT      0.0000
    538 H2''      -0.3327     6.7874  2632.7040 H        804 DT      0.0000
    539 H1'        2.1130     4.9901  2633.0691 H        804 DT      0.0000
    540 H3         0.3557     0.9008  2633.1928 H        804 DT      0.0000
    541 H6        -1.6032     5.2824  2633.2266 H        804 DT      0.0000
    542 H71       -3.9538     2.3947  2633.0261 H        804 DT      0.0000
    543 H72       -3.7699     3.9542  2632.1883 H        804 DT      0.0000
    544 H73       -3.8476     3.9026  2633.9659 H        804 DT      0.0000
    545 P          3.9759     7.5783  2632.0862 P.3      803 DC      0.0000
    546 OP1        5.2596     8.1454  2632.6953 O.co2    803 DC      0.0000
    547 OP2        3.2764     8.6456  2631.3043 O.co2    803 DC      0.0000
    548 O5'        4.1810     6.1412  2631.3467 O.3      803 DC      0.0000
    549 C5'        5.0272     5.1891  2632.0713 C.3      803 DC      0.0000
    550 C4'        5.7613     4.3970  2631.0207 C.3      803 DC      0.0000
    551 O4'        5.1577     3.1481  2630.7754 O.3      803 DC      0.0000
    552 C3'        5.8820     5.0778  2629.6563 C.3      803 DC      0.0000
    553 O3'        7.0871     4.7820  2628.9470 O.3      803 DC      0.0000
    554 C2'        4.6070     4.5684  2628.9702 C.3      803 DC      0.0000
    555 C1'        4.4845     3.1473  2629.5168 C.3      803 DC      0.0000
    556 N1         3.0427     2.8263  2629.6346 N.am     803 DC      0.0000
    557 C2         2.6934     1.4768  2629.6518 C.2      803 DC      0.0000
    558 O2         3.5565     0.5909  2629.5831 O.2      803 DC      0.0000
    559 N3         1.3622     1.1755  2629.7550 N.2      803 DC      0.0000
    560 C4         0.4069     2.1392  2629.8258 C.2      803 DC      0.0000
    561 N4        -0.8787     1.7950  2629.9277 N.pl3    803 DC      0.0000
    562 C5         0.7906     3.5091  2629.8007 C.2      803 DC      0.0000
    563 C6         2.0985     3.8041  2629.7071 C.2      803 DC      0.0000
    564 H5'        5.7351     5.7206  2632.7072 H        803 DC      0.0000
    565 H5''       4.4089     4.5249  2632.6752 H        803 DC      0.0000
    566 H4'        6.7701     4.2115  2631.3895 H        803 DC      0.0000
    567 H3'        5.8054     6.1567  2629.7905 H        803 DC      0.0000
    568 H2'        4.7174     4.5654  2627.8858 H        803 DC      0.0000
    569 H2''       3.7465     5.1685  2629.2661 H        803 DC      0.0000
    570 H1'        4.9674     2.4449  2628.8374 H        803 DC      0.0000
    571 H5         0.0491     4.2924  2629.8554 H        803 DC      0.0000
    572 H6         2.4069     4.8390  2629.6890 H        803 DC      0.0000
    573 H41       -1.1404     0.8197  2629.9484 H        803 DC      0.0000
    574 H42       -1.5899     2.5100  2629.9841 H        803 DC      0.0000
    575 P          7.2251     4.5932  2627.3150 P.3      802 DA      0.0000
    576 OP1        8.6624     4.8636  2626.9255 O.co2    802 DA      0.0000
    577 OP2        6.2337     5.5456  2626.7450 O.co2    802 DA      0.0000
    578 O5'        6.9507     3.0293  2627.1495 O.3      802 DA      0.0000
    579 C5'        7.9965     2.0905  2627.6149 C.3      802 DA      0.0000
    580 C4'        7.7367     0.8777  2626.7376 C.3      802 DA      0.0000
    581 O4'        6.4279     0.3581  2627.0050 O.3      802 DA      0.0000
    582 C3'        7.7254     1.2023  2625.2332 C.3      802 DA      0.0000
    583 O3'        7.8588     0.0309  2624.4442 O.3      802 DA      0.0000
    584 C2'        6.2653     1.6537  2625.0458 C.3      802 DA      0.0000
    585 C1'        5.6544     0.4413  2625.8004 C.3      802 DA      0.0000
    586 N9         4.2415     0.7760  2625.9458 N.ar     802 DA      0.0000
    587 C8         3.7032     2.0413  2626.0187 C.ar     802 DA      0.0000
    588 N7         2.3988     2.0453  2626.1333 N.ar     802 DA      0.0000
    589 C5         2.0633     0.6796  2626.1270 C.ar     802 DA      0.0000
    590 C6         0.8028     0.0291  2626.2269 C.ar     802 DA      0.0000
    591 N6        -0.3598     0.6762  2626.3497 N.pl3    802 DA      0.0000
    592 N1         0.8671    -1.3313  2626.1917 N.ar     802 DA      0.0000
    593 C2         2.0467    -1.9885  2626.0729 C.ar     802 DA      0.0000
    594 N3         3.2629    -1.4428  2625.9814 N.ar     802 DA      0.0000
    595 C4         3.1869    -0.1007  2626.0089 C.ar     802 DA      0.0000
    596 H5'        8.9951     2.4943  2627.4482 H        802 DA      0.0000
    597 H5''       7.8516     1.8432  2628.6666 H        802 DA      0.0000
    598 H4'        8.4842     0.1110  2626.9416 H        802 DA      0.0000
    599 H3'        8.4439     1.9764  2624.9636 H        802 DA      0.0000
    600 H2'        6.0495     2.6074  2625.5274 H        802 DA      0.0000
    601 H2''       5.9777     1.6597  2623.9944 H        802 DA      0.0000
    602 H1'        5.7699    -0.4689  2625.2120 H        802 DA      0.0000
    603 H8         4.2984     2.9419  2625.9847 H        802 DA      0.0000
    604 H2         1.9984    -3.0671  2626.0497 H        802 DA      0.0000
    605 H61       -0.3756     1.6857  2626.3745 H        802 DA      0.0000
    606 H62       -1.2226     0.1557  2626.4178 H        802 DA      0.0000
    607 P          8.9597    -0.0584  2623.3033 P.3      801 DC      0.0000
    608 OP1       10.1984    -0.4661  2624.0835 O.co2    801 DC      0.0000
    609 OP2        9.1267     1.2059  2622.5777 O.co2    801 DC      0.0000
    610 O5'        8.2923    -1.2015  2622.3274 O.3      801 DC      0.0000
    611 C5'        7.8930    -2.4583  2622.9964 C.3      801 DC      0.0000
    612 C4'        6.6282    -2.9616  2622.3524 C.3      801 DC      0.0000
    613 O4'        5.4403    -2.5075  2622.9895 O.3      801 DC      0.0000
    614 C3'        6.5053    -2.5526  2620.8746 C.3      801 DC      0.0000
    615 O3'        5.8397    -3.5124  2620.0633 O.3      801 DC      0.0000
    616 C2'        5.5860    -1.2984  2621.0402 C.3      801 DC      0.0000
    617 C1'        4.5534    -2.0770  2621.9358 C.3      801 DC      0.0000
    618 N1         3.4476    -1.1866  2622.1737 N.am     801 DC      0.0000
    619 C2         2.2151    -1.7343  2622.4908 C.2      801 DC      0.0000
    620 O2         1.8896    -2.9185  2622.6313 O.2      801 DC      0.0000
    621 N3         1.1656    -0.8805  2622.6891 N.2      801 DC      0.0000
    622 C4         1.3028     0.4754  2622.5731 C.2      801 DC      0.0000
    623 N4         0.2464     1.2747  2622.7891 N.pl3    801 DC      0.0000
    624 C5         2.5735     1.0225  2622.2434 C.2      801 DC      0.0000
    625 C6         3.5845     0.1672  2622.0517 C.2      801 DC      0.0000
    626 H5'        8.6829    -3.2011  2622.8849 H        801 DC      0.0000
    627 H5''       7.7148    -2.2692  2624.0550 H        801 DC      0.0000
    628 H4'        6.6384    -4.0505  2622.3991 H        801 DC      0.0000
    629 H3'        7.4745    -2.2821  2620.4556 H        801 DC      0.0000
    630 H2'        6.0710    -0.4704  2621.5573 H        801 DC      0.0000
    631 H2''       5.1485    -0.9860  2620.0920 H        801 DC      0.0000
    632 H1'        4.1966    -2.9511  2621.3909 H        801 DC      0.0000
    633 H5         2.7171     2.0890  2622.1513 H        801 DC      0.0000
    634 H6         4.5533     0.5654  2621.7885 H        801 DC      0.0000
    635 H41       -0.6491     0.8742  2623.0296 H        801 DC      0.0000
    636 H42        0.3469     2.2767  2622.7112 H        801 DC      0.0000
    637 P        -10.0110    -0.4018  2656.6624 P.3      811 DG      0.0000
    638 OP1      -11.3435     0.2508  2656.6609 O.co2    811 DG      0.0000
    639 OP2       -9.1637     0.3233  2657.7181 O.co2    811 DG      0.0000
    640 O5'       -9.9851    -1.9827  2656.8408 O.3      811 DG      0.0000
    641 C5'       -9.7989    -3.0067  2655.8408 C.3      811 DG      0.0000
    642 C4'       -8.7377    -3.9652  2656.3396 C.3      811 DG      0.0000
    643 O4'       -7.4437    -3.5891  2655.9205 O.3      811 DG      0.0000
    644 C3'       -8.6535    -4.2152  2657.8318 C.3      811 DG      0.0000
    645 O3'       -8.7291    -5.6324  2658.1438 O.3      811 DG      0.0000
    646 C2'       -7.3437    -3.5767  2658.2537 C.3      811 DG      0.0000
    647 C1'       -6.5070    -3.6220  2656.9981 C.3      811 DG      0.0000
    648 N9        -5.5772    -2.4784  2656.9690 N.ar     811 DG      0.0000
    649 C8        -5.8263    -1.1458  2657.1979 C.ar     811 DG      0.0000
    650 N7        -4.7637    -0.3781  2657.1082 N.ar     811 DG      0.0000
    651 C5        -3.7393    -1.2663  2656.7912 C.ar     811 DG      0.0000
    652 C6        -2.3547    -1.0685  2656.5653 C.2      811 DG      0.0000
    653 O6        -1.7222    -0.0122  2656.5865 O.2      811 DG      0.0000
    654 N1        -1.6428    -2.2022  2656.2837 N.am     811 DG      0.0000
    655 C2        -2.1818    -3.3777  2656.2231 C.2      811 DG      0.0000
    656 N2        -1.3044    -4.2559  2655.9263 N.pl3    811 DG      0.0000
    657 N3        -3.5325    -3.6740  2656.4318 N.2      811 DG      0.0000
    658 C4        -4.2239    -2.5580  2656.7044 C.ar     811 DG      0.0000
    659 H5'      -10.7349    -3.5424  2655.6821 H        811 DG      0.0000
    660 H5''      -9.4728    -2.5519  2654.9055 H        811 DG      0.0000
    661 H4'       -8.9467    -4.9287  2655.8749 H        811 DG      0.0000
    662 H3'       -9.4762    -3.6982  2658.3258 H        811 DG      0.0000
    663 H2'       -7.4995    -2.5487  2658.5807 H        811 DG      0.0000
    664 H2''      -6.8737    -4.1604  2659.0452 H        811 DG      0.0000
    665 H1'       -5.9433    -4.5543  2656.9661 H        811 DG      0.0000
    666 H8        -6.8092    -0.7635  2657.4310 H        811 DG      0.0000
    667 H1        -0.6505    -2.1181  2656.1154 H        811 DG      0.0000
    668 H21       -0.3434    -3.9809  2655.7820 H        811 DG      0.0000
    669 H22       -1.5712    -5.2258  2655.8359 H        811 DG      0.0000
    670 P         -8.3862    -6.2105  2659.5724 P.3      812 DT      0.0000
    671 OP1       -9.2871    -7.3046  2660.0840 O.co2    812 DT      0.0000
    672 OP2       -8.6704    -5.0082  2660.4910 O.co2    812 DT      0.0000
    673 O5'       -6.8686    -6.5246  2659.6009 O.3      812 DT      0.0000
    674 C5'       -6.3326    -7.8687  2659.4569 C.3      812 DT      0.0000
    675 C4'       -4.8301    -7.6886  2659.5145 C.3      812 DT      0.0000
    676 O4'       -4.4414    -6.3607  2659.2393 O.3      812 DT      0.0000
    677 C3'       -4.1651    -8.0172  2660.8272 C.3      812 DT      0.0000
    678 O3'       -3.3036    -9.1496  2660.6390 O.3      812 DT      0.0000
    679 C2'       -3.3748    -6.7690  2661.2194 C.3      812 DT      0.0000
    680 C1'       -3.1434    -6.1475  2659.8667 C.3      812 DT      0.0000
    681 N1        -2.9371    -4.7023  2659.9633 N.am     812 DT      0.0000
    682 C2        -1.6672    -4.2322  2659.7654 C.2      812 DT      0.0000
    683 O2        -0.7180    -4.9755  2659.5272 O.2      812 DT      0.0000
    684 N3        -1.4840    -2.8780  2659.8464 N.am     812 DT      0.0000
    685 C4        -2.4922    -2.0139  2660.1023 C.2      812 DT      0.0000
    686 O4        -2.1703    -0.7978  2660.1476 O.2      812 DT      0.0000
    687 C5        -3.8152    -2.5241  2660.3020 C.2      812 DT      0.0000
    688 C7        -4.9577    -1.6027  2660.5819 C.3      812 DT      0.0000
    689 C6        -3.9851    -3.8499  2660.2205 C.2      812 DT      0.0000
    690 H5'       -6.6748    -8.5085  2660.2704 H        812 DT      0.0000
    691 H5''      -6.6257    -8.2910  2658.4958 H        812 DT      0.0000
    692 H4'       -4.3896    -8.3286  2658.7499 H        812 DT      0.0000
    693 H3'       -4.9172    -8.2390  2661.5843 H        812 DT      0.0000
    694 H2'       -3.9558    -6.1136  2661.8682 H        812 DT      0.0000
    695 H2''      -2.4291    -7.0403  2661.6886 H        812 DT      0.0000
    696 H1'       -2.3387    -6.6407  2659.3213 H        812 DT      0.0000
    697 H3        -0.5544    -2.5078  2659.7089 H        812 DT      0.0000
    698 H6        -4.9737    -4.2616  2660.3609 H        812 DT      0.0000
    699 H71       -5.5502    -1.4723  2659.6764 H        812 DT      0.0000
    700 H72       -4.5732    -0.6359  2660.9067 H        812 DT      0.0000
    701 H73       -5.5830    -2.0275  2661.3672 H        812 DT      0.0000
    702 P         -3.2828   -10.1532  2661.9189 P.3      813 DG      0.0000
    703 OP1       -3.1769   -11.4942  2661.2039 O.co2    813 DG      0.0000
    704 OP2       -4.5119    -9.9805  2662.6725 O.co2    813 DG      0.0000
    705 O5'       -1.8690    -9.6110  2662.5285 O.3      813 DG      0.0000
    706 C5'       -0.8789    -9.4941  2661.4379 C.3      813 DG      0.0000
    707 C4'        0.2778    -8.6924  2661.9579 C.3      813 DG      0.0000
    708 O4'        0.2088    -7.3032  2661.7773 O.3      813 DG      0.0000
    709 C3'        0.5340    -8.9325  2663.4659 C.3      813 DG      0.0000
    710 O3'        1.9186    -9.3261  2663.6248 O.3      813 DG      0.0000
    711 C2'        0.1256    -7.6290  2664.1185 C.3      813 DG      0.0000
    712 C1'        0.4810    -6.6156  2663.0370 C.3      813 DG      0.0000
    713 N9        -0.2713    -5.3675  2663.2065 N.ar     813 DG      0.0000
    714 C8        -1.5864    -5.2001  2663.5427 C.ar     813 DG      0.0000
    715 N7        -1.9751    -3.9470  2663.6284 N.ar     813 DG      0.0000
    716 C5        -0.8214    -3.2394  2663.2984 C.ar     813 DG      0.0000
    717 C6        -0.5830    -1.8384  2663.2041 C.2      813 DG      0.0000
    718 O6        -1.3828    -0.9105  2663.3964 O.2      813 DG      0.0000
    719 N1         0.7089    -1.5028  2662.8690 N.am     813 DG      0.0000
    720 C2         1.6638    -2.4472  2662.6453 C.2      813 DG      0.0000
    721 N2         2.8636    -1.9380  2662.3364 N.pl3    813 DG      0.0000
    722 N3         1.4900    -3.7649  2662.7163 N.2      813 DG      0.0000
    723 C4         0.2287    -4.0950  2663.0429 C.ar     813 DG      0.0000
    724 H5'       -0.5388   -10.4851  2661.1374 H        813 DG      0.0000
    725 H5''      -1.3276    -8.9840  2660.5855 H        813 DG      0.0000
    726 H4'        1.1655    -9.0368  2661.4273 H        813 DG      0.0000
    727 H3'       -0.1138    -9.7341  2663.8207 H        813 DG      0.0000
    728 H2'       -0.9412    -7.6139  2664.3414 H        813 DG      0.0000
    729 H2''       0.7103    -7.4503  2665.0209 H        813 DG      0.0000
    730 H1'        1.5470    -6.3958  2663.0959 H        813 DG      0.0000
    731 H8        -2.2525    -6.0309  2663.7233 H        813 DG      0.0000
    732 H1         0.9560    -0.5269  2662.7867 H        813 DG      0.0000
    733 H21        2.9898    -0.9372  2662.2862 H        813 DG      0.0000
    734 H22        3.6422    -2.5550  2662.1538 H        813 DG      0.0000
    735 P          2.4922    -9.7586  2665.0132 P.3      814 DA      0.0000
    736 OP1        2.3795   -11.2057  2665.3686 O.co2    814 DA      0.0000
    737 OP2        1.4680    -8.9695  2665.9089 O.co2    814 DA      0.0000
    738 O5'        3.8700    -9.0141  2665.2623 O.3      814 DA      0.0000
    739 C5'        4.7183    -8.4839  2664.2333 C.3      814 DA      0.0000
    740 C4'        5.1015    -7.0914  2664.7076 C.3      814 DA      0.0000
    741 O4'        3.9951    -6.2195  2664.6172 O.3      814 DA      0.0000
    742 C3'        5.6343    -6.9863  2666.1366 C.3      814 DA      0.0000
    743 O3'        6.8332    -6.1857  2666.1889 O.3      814 DA      0.0000
    744 C2'        4.4521    -6.3434  2666.8721 C.3      814 DA      0.0000
    745 C1'        3.9962    -5.3713  2665.7945 C.3      814 DA      0.0000
    746 N9         2.6561    -4.8215  2666.0229 N.ar     814 DA      0.0000
    747 C8         1.4691    -5.4623  2666.2387 C.ar     814 DA      0.0000
    748 N7         0.4481    -4.6511  2666.4036 N.ar     814 DA      0.0000
    749 C5         1.0014    -3.3872  2666.2634 C.ar     814 DA      0.0000
    750 C6         0.4208    -2.1010  2666.3114 C.ar     814 DA      0.0000
    751 N6        -0.8749    -1.8653  2666.5312 N.pl3    814 DA      0.0000
    752 N1         1.2884    -1.0628  2666.1216 N.ar     814 DA      0.0000
    753 C2         2.6061    -1.2794  2665.9038 C.ar     814 DA      0.0000
    754 N3         3.2218    -2.4597  2665.8456 N.ar     814 DA      0.0000
    755 C4         2.3528    -3.4698  2666.0324 C.ar     814 DA      0.0000
    756 H5'        4.1816    -8.4302  2663.2861 H        814 DA      0.0000
    757 H5''       5.6094    -9.1024  2664.1255 H        814 DA      0.0000
    758 H4'        5.8748    -6.7151  2664.0378 H        814 DA      0.0000
    759 H3'        5.8296    -7.9807  2666.5381 H        814 DA      0.0000
    760 H2'        3.6794    -7.0719  2667.1176 H        814 DA      0.0000
    761 H2''       4.7869    -5.8120  2667.7630 H        814 DA      0.0000
    762 H1'        4.7214    -4.5657  2665.6800 H        814 DA      0.0000
    763 H8         1.3779    -6.5379  2666.2707 H        814 DA      0.0000
    764 H2         3.2233    -0.4044  2665.7625 H        814 DA      0.0000
    765 H61       -1.6122    -2.5487  2666.4338 H        814 DA      0.0000
    766 H62       -1.2285    -0.9349  2666.3597 H        814 DA      0.0000
    767 P          7.9924    -6.4125  2667.3304 P.3      815 DA      0.0000
    768 OP1        9.2898    -6.7964  2666.6633 O.co2    815 DA      0.0000
    769 OP2        7.3720    -7.4644  2668.1613 O.co2    815 DA      0.0000
    770 O5'        8.2474    -4.9298  2667.8612 O.3      815 DA      0.0000
    771 C5'        8.7245    -3.8677  2667.0369 C.3      815 DA      0.0000
    772 C4'        8.1413    -2.5665  2667.5592 C.3      815 DA      0.0000
    773 O4'        6.7426    -2.6122  2667.5874 O.3      815 DA      0.0000
    774 C3'        8.6019    -2.0919  2668.9265 C.3      815 DA      0.0000
    775 O3'        9.3059    -0.8526  2668.8487 O.3      815 DA      0.0000
    776 C2'        7.3119    -2.0579  2669.7552 C.3      815 DA      0.0000
    777 C1'        6.2268    -1.9052  2668.7614 C.3      815 DA      0.0000
    778 N9         4.8865    -2.4574  2669.0295 N.ar     815 DA      0.0000
    779 C8         4.4759    -3.7634  2669.1447 C.ar     815 DA      0.0000
    780 N7         3.1828    -3.9066  2669.3140 N.ar     815 DA      0.0000
    781 C5         2.6972    -2.6034  2669.2770 C.ar     815 DA      0.0000
    782 C6         1.3785    -2.0797  2669.3974 C.ar     815 DA      0.0000
    783 N6         0.2790    -2.7978  2669.5891 N.pl3    815 DA      0.0000
    784 N1         1.2715    -0.7149  2669.2992 N.ar     815 DA      0.0000
    785 C2         2.3806     0.0574  2669.1102 C.ar     815 DA      0.0000
    786 N3         3.6352    -0.3650  2669.0023 N.ar     815 DA      0.0000
    787 C4         3.7246    -1.7070  2669.0942 C.ar     815 DA      0.0000
    788 H5'        8.4059    -4.0280  2666.0068 H        815 DA      0.0000
    789 H5''       9.8127    -3.8272  2667.0828 H        815 DA      0.0000
    790 H4'        8.4168    -1.7891  2666.8465 H        815 DA      0.0000
    791 H3'        9.2676    -2.8441  2669.3497 H        815 DA      0.0000
    792 H2'        7.1913    -2.9851  2670.3155 H        815 DA      0.0000
    793 H2''       7.3230    -1.2058  2670.4348 H        815 DA      0.0000
    794 H1'        6.1255    -0.8482  2668.5154 H        815 DA      0.0000
    795 H8         5.1582    -4.5994  2669.0998 H        815 DA      0.0000
    796 H2         2.2216     1.1233  2669.0410 H        815 DA      0.0000
    797 H61        0.3094    -3.7532  2669.9152 H        815 DA      0.0000
    798 H62       -0.6188    -2.3744  2669.4023 H        815 DA      0.0000
    799 P         10.5434    -0.4068  2669.8049 P.3      816 DT      0.0000
    800 OP1       11.6479     0.2776  2669.0076 O.co2    816 DT      0.0000
    801 OP2       10.9812    -1.5164  2670.6255 O.co2    816 DT      0.0000
    802 O5'        9.8894     0.8642  2670.6186 O.3      816 DT      0.0000
    803 C5'        9.0703     1.6768  2669.6735 C.3      816 DT      0.0000
    804 C4'        7.8349     2.0323  2670.4612 C.3      816 DT      0.0000
    805 O4'        6.9542     0.9481  2670.6532 O.3      816 DT      0.0000
    806 C3'        8.1720     2.5332  2671.8778 C.3      816 DT      0.0000
    807 O3'        8.1627     3.9488  2671.8795 O.3      816 DT      0.0000
    808 C2'        7.1217     1.8833  2672.7751 C.3      816 DT      0.0000
    809 C1'        6.1188     1.3895  2671.8104 C.3      816 DT      0.0000
    810 N1         5.2535     0.2712  2672.1502 N.am     816 DT      0.0000
    811 C2         3.8965     0.5458  2672.2881 C.2      816 DT      0.0000
    812 O2         3.4969     1.6997  2672.2001 O.2      816 DT      0.0000
    813 N3         3.0518    -0.4923  2672.5421 N.am     816 DT      0.0000
    814 C4         3.4837    -1.7822  2672.6623 C.2      816 DT      0.0000
    815 O4         2.6341    -2.6944  2672.9175 O.2      816 DT      0.0000
    816 C5         4.8829    -2.0441  2672.4907 C.2      816 DT      0.0000
    817 C7         5.4076    -3.4504  2672.5782 C.3      816 DT      0.0000
    818 C6         5.7113    -1.0169  2672.2349 C.2      816 DT      0.0000
    819 H5'        9.6076     2.5760  2669.3719 H        816 DT      0.0000
    820 H5''       8.8034     1.0842  2668.7985 H        816 DT      0.0000
    821 H4'        7.3019     2.8223  2669.9321 H        816 DT      0.0000
    822 H3'        9.1622     2.1769  2672.1621 H        816 DT      0.0000
    823 H2'        7.5509     1.0617  2673.3485 H        816 DT      0.0000
    824 H2''       6.6784     2.6232  2673.4415 H        816 DT      0.0000
    825 H1'        5.4978     2.2273  2671.4931 H        816 DT      0.0000
    826 H3         2.0657    -0.3001  2672.6458 H        816 DT      0.0000
    827 H6         6.7640    -1.2121  2672.0928 H        816 DT      0.0000
    828 H71        4.5851    -4.1331  2672.7913 H        816 DT      0.0000
    829 H72        5.8709    -3.7247  2671.6304 H        816 DT      0.0000
    830 H73        6.1478    -3.5131  2673.3760 H        816 DT      0.0000
    831 P          8.6376     4.9283  2672.9861 P.3      817 DT      0.0000
    832 OP1        8.9736     6.3128  2672.3740 O.co2    817 DT      0.0000
    833 OP2        9.8275     4.3002  2673.6161 O.co2    817 DT      0.0000
    834 O5'        7.3270     5.2032  2673.8684 O.3      817 DT      0.0000
    835 C5'        6.3358     5.9917  2673.1567 C.3      817 DT      0.0000
    836 C4'        5.0191     5.8268  2673.8328 C.3      817 DT      0.0000
    837 O4'        4.5244     4.4936  2673.8095 O.3      817 DT      0.0000
    838 C3'        4.9980     6.2808  2675.2994 C.3      817 DT      0.0000
    839 O3'        3.8245     7.0261  2675.5635 O.3      817 DT      0.0000
    840 C2'        4.9319     4.9217  2676.0358 C.3      817 DT      0.0000
    841 C1'        3.9142     4.2557  2675.1322 C.3      817 DT      0.0000
    842 N1         3.7984     2.8401  2675.4299 N.am     817 DT      0.0000
    843 C2         2.5335     2.2775  2675.4847 C.2      817 DT      0.0000
    844 O2         1.5521     2.9978  2675.2963 O.2      817 DT      0.0000
    845 N3         2.4315     0.9410  2675.7506 N.am     817 DT      0.0000
    846 C4         3.5247     0.1569  2675.9577 C.2      817 DT      0.0000
    847 O4         3.3534    -1.0756  2676.1810 O.2      817 DT      0.0000
    848 C5         4.8213     0.7455  2675.8926 C.2      817 DT      0.0000
    849 C7         6.0744    -0.0534  2676.1025 C.3      817 DT      0.0000
    850 C6         4.9031     2.0595  2675.6315 C.2      817 DT      0.0000
    851 H5'        6.6252     7.0425  2673.1691 H        817 DT      0.0000
    852 H5''       6.2636     5.6444  2672.1259 H        817 DT      0.0000
    853 H4'        4.3013     6.4456  2673.2943 H        817 DT      0.0000
    854 H3'        5.8972     6.8383  2675.5619 H        817 DT      0.0000
    855 H2'        5.8901     4.4023  2676.0345 H        817 DT      0.0000
    856 H2''       4.5460     5.0383  2677.0485 H        817 DT      0.0000
    857 H1'        2.9453     4.7493  2675.2078 H        817 DT      0.0000
    858 H3         1.5141     0.5209  2675.7951 H        817 DT      0.0000
    859 H6         5.8793     2.5182  2675.5784 H        817 DT      0.0000
    860 H71        5.8142    -1.0930  2676.3014 H        817 DT      0.0000
    861 H72        6.6938     0.0009  2675.2072 H        817 DT      0.0000
    862 H73        6.6258     0.3518  2676.9509 H        817 DT      0.0000
    863 P          3.4865     8.4329  2676.1714 P.3      818 DC      0.0000
    864 OP1        3.0051     9.3962  2675.1035 O.co2    818 DC      0.0000
    865 OP2        4.6976     8.8412  2676.9064 O.co2    818 DC      0.0000
    866 O5'        2.1620     7.9602  2676.9975 O.3      818 DC      0.0000
    867 C5'        1.3410     7.2847  2675.9752 C.3      818 DC      0.0000
    868 C4'        0.1221     6.7501  2676.6717 C.3      818 DC      0.0000
    869 O4'        0.2023     5.3805  2676.9186 O.3      818 DC      0.0000
    870 C3'       -0.2526     7.4684  2677.9632 C.3      818 DC      0.0000
    871 O3'       -1.5825     7.9641  2677.8835 O.3      818 DC      0.0000
    872 C2'        0.0601     6.3988  2679.0119 C.3      818 DC      0.0000
    873 C1'       -0.1570     5.1141  2678.3155 C.3      818 DC      0.0000
    874 N1         0.7521     4.0126  2678.6476 N.am     818 DC      0.0000
    875 C2         0.1497     2.7827  2678.9034 C.2      818 DC      0.0000
    876 O2        -1.0787     2.6572  2678.9079 O.2      818 DC      0.0000
    877 N3         0.9741     1.7193  2679.1773 N.2      818 DC      0.0000
    878 C4         2.3317     1.8497  2679.1673 C.2      818 DC      0.0000
    879 N4         3.0436     0.7628  2679.4442 N.pl3    818 DC      0.0000
    880 C5         2.9286     3.0991  2678.8893 C.2      818 DC      0.0000
    881 C6         2.1053     4.1342  2678.6245 C.2      818 DC      0.0000
    882 H5'        1.0484     7.9946  2675.2015 H        818 DC      0.0000
    883 H5''       1.9038     6.4638  2675.5310 H        818 DC      0.0000
    884 H4'       -0.7130     6.8921  2675.9857 H        818 DC      0.0000
    885 H3'        0.4266     8.3088  2678.1064 H        818 DC      0.0000
    886 H2'        1.0930     6.4828  2679.3498 H        818 DC      0.0000
    887 H2''      -0.6217     6.4892  2679.8575 H        818 DC      0.0000
    888 H1'       -1.1971     4.7983  2678.3965 H        818 DC      0.0000
    889 H5         4.0017     3.2209  2678.8887 H        818 DC      0.0000
    890 H6         2.5374     5.0948  2678.3855 H        818 DC      0.0000
    891 H41        2.5760    -0.1099  2679.6434 H        818 DC      0.0000
    892 H42        4.0525     0.8093  2679.4555 H        818 DC      0.0000
    893 P         -2.2436     9.0998  2678.8355 P.3      819 DA      0.0000
    894 OP1       -3.3620     9.7475  2678.0418 O.co2    819 DA      0.0000
    895 OP2       -1.1859    10.0712  2679.1811 O.co2    819 DA      0.0000
    896 O5'       -2.8016     8.2545  2680.1325 O.3      819 DA      0.0000
    897 C5'       -3.6694     7.1175  2679.8373 C.3      819 DA      0.0000
    898 C4'       -4.0174     6.3868  2681.0926 C.3      819 DA      0.0000
    899 O4'       -3.2564     5.1996  2681.3347 O.3      819 DA      0.0000
    900 C3'       -3.8140     7.1742  2682.3978 C.3      819 DA      0.0000
    901 O3'       -4.5892     6.5565  2683.4277 O.3      819 DA      0.0000
    902 C2'       -2.3092     6.9168  2682.6124 C.3      819 DA      0.0000
    903 C1'       -2.3643     5.3963  2682.4291 C.3      819 DA      0.0000
    904 N9        -1.0107     4.8763  2682.3348 N.ar     819 DA      0.0000
    905 C8         0.1869     5.5260  2682.2190 C.ar     819 DA      0.0000
    906 N7         1.2484     4.7400  2682.2004 N.ar     819 DA      0.0000
    907 C5         0.7025     3.4687  2682.3079 C.ar     819 DA      0.0000
    908 C6         1.2937     2.1817  2682.3425 C.ar     819 DA      0.0000
    909 N6         2.5916     1.9511  2682.2572 N.pl3    819 DA      0.0000
    910 N1         0.4346     1.1287  2682.4750 N.ar     819 DA      0.0000
    911 C2        -0.9188     1.3220  2682.5552 C.ar     819 DA      0.0000
    912 N3        -1.5465     2.4952  2682.5254 N.ar     819 DA      0.0000
    913 C4        -0.6783     3.5291  2682.4023 C.ar     819 DA      0.0000
    914 H5'       -4.5842     7.4770  2679.3662 H        819 DA      0.0000
    915 H5''      -3.1557     6.4392  2679.1560 H        819 DA      0.0000
    916 H4'       -5.0683     6.1036  2681.0337 H        819 DA      0.0000
    917 H3'       -4.0426     8.2338  2682.2842 H        819 DA      0.0000
    918 H2'       -1.6893     7.4068  2681.8616 H        819 DA      0.0000
    919 H2''      -1.9990     7.1853  2683.6223 H        819 DA      0.0000
    920 H1'       -2.8262     4.9684  2683.3188 H        819 DA      0.0000
    921 H8         0.2595     6.6012  2682.1480 H        819 DA      0.0000
    922 H2        -1.5344     0.4398  2682.6517 H        819 DA      0.0000
    923 H61        3.1767     1.1478  2682.4372 H        819 DA      0.0000
    924 H62        3.1143     2.7559  2681.9425 H        819 DA      0.0000
    925 P         -6.1594     6.8311  2683.5682 P.3      820 DC      0.0000
    926 OP1       -6.7750     7.3714  2682.3231 O.co2    820 DC      0.0000
    927 OP2       -6.2103     7.8034  2684.7111 O.co2    820 DC      0.0000
    928 O5'       -6.7575     5.3901  2683.8514 O.3      820 DC      0.0000
    929 C5'       -7.0243     4.4539  2682.7637 C.3      820 DC      0.0000
    930 C4'       -6.8444     3.1046  2683.4686 C.3      820 DC      0.0000
    931 O4'       -5.4770     2.9726  2683.7806 O.3      820 DC      0.0000
    932 C3'       -7.6191     2.9863  2684.7785 C.3      820 DC      0.0000
    933 O3'       -8.4308     1.7921  2684.8464 O.3      820 DC      0.0000
    934 C2'       -6.5304     3.0432  2685.8607 C.3      820 DC      0.0000
    935 C1'       -5.3748     2.4245  2685.1846 C.3      820 DC      0.0000
    936 N1        -4.0034     2.7824  2685.5374 N.am     820 DC      0.0000
    937 C2        -3.0910     1.7293  2685.5105 C.2      820 DC      0.0000
    938 O2        -3.4253     0.5696  2685.3036 O.2      820 DC      0.0000
    939 N3        -1.7878     2.0251  2685.7636 N.2      820 DC      0.0000
    940 C4        -1.3606     3.2896  2685.9970 C.2      820 DC      0.0000
    941 N4        -0.0593     3.4534  2686.2279 N.pl3    820 DC      0.0000
    942 C5        -2.2993     4.3578  2686.0035 C.2      820 DC      0.0000
    943 C6        -3.5835     4.0584  2685.7541 C.2      820 DC      0.0000
    944 H5'       -8.0375     4.5696  2682.3788 H        820 DC      0.0000
    945 H5''      -6.2924     4.5722  2681.9646 H        820 DC      0.0000
    946 H4'       -7.1429     2.3006  2682.7959 H        820 DC      0.0000
    947 H3'       -8.2658     3.8574  2684.8844 H        820 DC      0.0000
    948 H2'       -6.3139     4.0722  2686.1477 H        820 DC      0.0000
    949 H2''      -6.8243     2.4564  2686.7310 H        820 DC      0.0000
    950 H1'       -5.4863     1.3403  2685.1713 H        820 DC      0.0000
    951 H5        -1.9899     5.3733  2686.2020 H        820 DC      0.0000
    952 H6        -4.3089     4.8579  2685.7244 H        820 DC      0.0000
    953 H41        0.5598     2.6555  2686.2169 H        820 DC      0.0000
    954 H42        0.3084     4.3755  2686.4140 H        820 DC      0.0000
    955 P          7.9143    -3.0677  2687.8059 P.3      820 DG      0.0000
    956 OP1        9.3216    -3.5415  2687.9847 O.co2    820 DG      0.0000
    957 OP2        7.7750    -2.0079  2686.7211 O.co2    820 DG      0.0000
    958 O5'        6.9237    -4.3658  2687.5987 O.3      820 DG      0.0000
    959 C5'        6.0371    -4.7698  2688.6945 C.3      820 DG      0.0000
    960 C4'        4.7218    -5.2159  2688.0602 C.3      820 DG      0.0000
    961 O4'        3.8013    -4.1634  2687.9644 O.3      820 DG      0.0000
    962 C3'        4.8622    -5.7925  2686.6538 C.3      820 DG      0.0000
    963 O3'        4.0098    -6.9301  2686.3869 O.3      820 DG      0.0000
    964 C2'        4.5064    -4.5971  2685.7516 C.3      820 DG      0.0000
    965 C1'        3.4151    -3.9341  2686.5754 C.3      820 DG      0.0000
    966 N9         3.3487    -2.4883  2686.3021 N.ar     820 DG      0.0000
    967 C8         4.3936    -1.6090  2686.1454 C.ar     820 DG      0.0000
    968 N7         4.0216    -0.3757  2685.9270 N.ar     820 DG      0.0000
    969 C5         2.6334    -0.4412  2685.9518 C.ar     820 DG      0.0000
    970 C6         1.6443     0.5661  2685.7953 C.2      820 DG      0.0000
    971 O6         1.8422     1.7735  2685.5985 O.2      820 DG      0.0000
    972 N1         0.3527     0.1081  2685.8823 N.am     820 DG      0.0000
    973 C2         0.0513    -1.1950  2686.1029 C.2      820 DG      0.0000
    974 N2        -1.2441    -1.4904  2686.1663 N.pl3    820 DG      0.0000
    975 N3         0.9426    -2.1812  2686.2607 N.2      820 DG      0.0000
    976 C4         2.2097    -1.7312  2686.1774 C.ar     820 DG      0.0000
    977 H5'        6.4824    -5.5936  2689.2522 H        820 DG      0.0000
    978 H5''       5.8603    -3.9244  2689.3594 H        820 DG      0.0000
    979 H4'        4.2862    -5.9860  2688.6969 H        820 DG      0.0000
    980 H3'        5.9012    -6.0745  2686.4834 H        820 DG      0.0000
    981 H2'        5.3599    -3.9343  2685.6089 H        820 DG      0.0000
    982 H2''       4.1156    -4.9378  2684.7928 H        820 DG      0.0000
    983 H1'        2.4518    -4.4010  2686.3701 H        820 DG      0.0000
    984 H8         5.4294    -1.9105  2686.1982 H        820 DG      0.0000
    985 H1        -0.4037     0.7692  2685.7775 H        820 DG      0.0000
    986 H21       -1.9344    -0.7622  2686.0512 H        820 DG      0.0000
    987 H22       -1.5374    -2.4430  2686.3294 H        820 DG      0.0000
    988 P          3.5450    -7.1060  2684.8634 P.3      819 DT      0.0000
    989 OP1        3.2751    -8.5340  2684.4725 O.co2    819 DT      0.0000
    990 OP2        4.7395    -6.5736  2684.1628 O.co2    819 DT      0.0000
    991 O5'        2.2049    -6.2374  2684.7325 O.3      819 DT      0.0000
    992 C5'        0.9428    -6.9283  2685.0001 C.3      819 DT      0.0000
    993 C4'       -0.1598    -6.2205  2684.2431 C.3      819 DT      0.0000
    994 O4'        0.0044    -4.8138  2684.2158 O.3      819 DT      0.0000
    995 C3'       -0.2571    -6.6534  2682.7884 C.3      819 DT      0.0000
    996 O3'       -1.6101    -6.7521  2682.2933 O.3      819 DT      0.0000
    997 C2'        0.5307    -5.5834  2682.0655 C.3      819 DT      0.0000
    998 C1'        0.0643    -4.3642  2682.8436 C.3      819 DT      0.0000
    999 N1         1.1096    -3.3397  2682.6923 N.am     819 DT      0.0000
   1000 C2         0.6934    -2.0166  2682.7991 C.2      819 DT      0.0000
   1001 O2        -0.4886    -1.7501  2682.9888 O.2      819 DT      0.0000
   1002 N3         1.6517    -1.0493  2682.6789 N.am     819 DT      0.0000
   1003 C4         2.9616    -1.3552  2682.4613 C.2      819 DT      0.0000
   1004 O4         3.7829    -0.3843  2682.3638 O.2      819 DT      0.0000
   1005 C5         3.3574    -2.7192  2682.3549 C.2      819 DT      0.0000
   1006 C7         4.8001    -3.0683  2682.1260 C.3      819 DT      0.0000
   1007 C6         2.4173    -3.6598  2682.4767 C.2      819 DT      0.0000
   1008 H5'        1.0122    -7.9637  2684.6664 H        819 DT      0.0000
   1009 H5''       0.7295    -6.9012  2686.0687 H        819 DT      0.0000
   1010 H4'       -1.1083    -6.4448  2684.7310 H        819 DT      0.0000
   1011 H3'        0.2426    -7.6141  2682.6644 H        819 DT      0.0000
   1012 H2'        1.6058    -5.7378  2682.1571 H        819 DT      0.0000
   1013 H2''       0.2325    -5.5175  2681.0191 H        819 DT      0.0000
   1014 H1'       -0.9042    -4.0076  2682.4930 H        819 DT      0.0000
   1015 H3         1.3809    -0.0791  2682.7536 H        819 DT      0.0000
   1016 H6         2.6998    -4.6995  2682.4026 H        819 DT      0.0000
   1017 H71        5.3893    -2.1539  2682.0573 H        819 DT      0.0000
   1018 H72        5.1636    -3.6729  2682.9569 H        819 DT      0.0000
   1019 H73        4.8946    -3.6321  2681.1979 H        819 DT      0.0000
   1020 P         -1.7401    -8.2122  2681.5149 P.3      818 DG      0.0000
   1021 OP1       -2.2691    -9.3046  2682.3861 O.co2    818 DG      0.0000
   1022 OP2       -0.3212    -8.3711  2681.1093 O.co2    818 DG      0.0000
   1023 O5'       -2.8657    -7.8663  2680.4340 O.3      818 DG      0.0000
   1024 C5'       -4.2519    -7.8228  2680.8575 C.3      818 DG      0.0000
   1025 C4'       -4.7530    -6.4554  2680.4098 C.3      818 DG      0.0000
   1026 O4'       -3.7693    -5.4770  2680.6805 O.3      818 DG      0.0000
   1027 C3'       -5.0927    -6.3646  2678.9221 C.3      818 DG      0.0000
   1028 O3'       -6.4260    -5.9346  2678.7135 O.3      818 DG      0.0000
   1029 C2'       -4.0166    -5.4618  2678.3453 C.3      818 DG      0.0000
   1030 C1'       -3.6211    -4.6144  2679.5315 C.3      818 DG      0.0000
   1031 N9        -2.2351    -4.1551  2679.4079 N.ar     818 DG      0.0000
   1032 C8        -1.1041    -4.9048  2679.2490 C.ar     818 DG      0.0000
   1033 N7        -0.0061    -4.1933  2679.1710 N.ar     818 DG      0.0000
   1034 C5        -0.4441    -2.8794  2679.3085 C.ar     818 DG      0.0000
   1035 C6         0.2555    -1.6439  2679.3180 C.2      818 DG      0.0000
   1036 O6         1.4671    -1.4779  2679.2189 O.2      818 DG      0.0000
   1037 N1        -0.5383    -0.5423  2679.4670 N.am     818 DG      0.0000
   1038 C2        -1.9025    -0.6380  2679.5998 C.2      818 DG      0.0000
   1039 N2        -2.5567     0.5159  2679.7355 N.pl3    818 DG      0.0000
   1040 N3        -2.6208    -1.7654  2679.6041 N.2      818 DG      0.0000
   1041 C4        -1.8207    -2.8484  2679.4534 C.ar     818 DG      0.0000
   1042 H5'       -4.8247    -8.6170  2680.3788 H        818 DG      0.0000
   1043 H5''      -4.3177    -7.9117  2681.9419 H        818 DG      0.0000
   1044 H4'       -5.6477    -6.2120  2680.9828 H        818 DG      0.0000
   1045 H3'       -4.9797    -7.3560  2678.4835 H        818 DG      0.0000
   1046 H2'       -3.1708    -6.0436  2677.9790 H        818 DG      0.0000
   1047 H2''      -4.4258    -4.8391  2677.5498 H        818 DG      0.0000
   1048 H1'       -4.2911    -3.7590  2679.6185 H        818 DG      0.0000
   1049 H8        -1.1139    -5.9833  2679.1930 H        818 DG      0.0000
   1050 H1        -0.1088     0.3717  2679.4798 H        818 DG      0.0000
   1051 H21       -2.0475     1.3881  2679.7365 H        818 DG      0.0000
   1052 H22       -3.5615     0.5177  2679.8373 H        818 DG      0.0000
   1053 P         -7.1153    -4.8069  2677.8472 P.3      817 DA      0.0000
   1054 OP1       -8.2743    -4.1752  2678.6286 O.co2    817 DA      0.0000
   1055 OP2       -7.6166    -5.4936  2676.6545 O.co2    817 DA      0.0000
   1056 O5'       -6.0067    -3.6260  2677.6724 O.3      817 DA      0.0000
   1057 C5'       -6.0039    -2.7074  2678.8289 C.3      817 DA      0.0000
   1058 C4'       -6.3967    -1.3497  2678.3011 C.3      817 DA      0.0000
   1059 O4'       -5.2866    -0.5176  2678.0788 O.3      817 DA      0.0000
   1060 C3'       -7.1271    -1.4201  2676.9606 C.3      817 DA      0.0000
   1061 O3'       -8.2070    -0.5204  2676.8854 O.3      817 DA      0.0000
   1062 C2'       -5.9947    -1.2487  2675.9640 C.3      817 DA      0.0000
   1063 C1'       -4.8970    -0.5203  2676.6879 C.3      817 DA      0.0000
   1064 N9        -3.5852    -1.1509  2676.4624 N.ar     817 DA      0.0000
   1065 C8        -3.2850    -2.4830  2676.2760 C.ar     817 DA      0.0000
   1066 N7        -2.0100    -2.7285  2676.0801 N.ar     817 DA      0.0000
   1067 C5        -1.4270    -1.4705  2676.1670 C.ar     817 DA      0.0000
   1068 C6        -0.0792    -1.0546  2676.0613 C.ar     817 DA      0.0000
   1069 N6         0.9307    -1.8798  2675.8488 N.pl3    817 DA      0.0000
   1070 N1         0.1461     0.2826  2676.1850 N.ar     817 DA      0.0000
   1071 C2        -0.8777     1.1583  2676.4096 C.ar     817 DA      0.0000
   1072 N3        -2.1635     0.8326  2676.5254 N.ar     817 DA      0.0000
   1073 C4        -2.3748    -0.4989  2676.3893 C.ar     817 DA      0.0000
   1074 H5'       -6.7224    -3.0423  2679.5770 H        817 DA      0.0000
   1075 H5''      -5.0062    -2.6621  2679.2656 H        817 DA      0.0000
   1076 H4'       -7.0511    -0.8697  2679.0288 H        817 DA      0.0000
   1077 H3'       -7.5232    -2.4293  2676.8475 H        817 DA      0.0000
   1078 H2'       -6.3322    -0.6658  2675.1072 H        817 DA      0.0000
   1079 H2''      -5.6389    -2.2246  2675.6335 H        817 DA      0.0000
   1080 H1'       -4.8603     0.5085  2676.3297 H        817 DA      0.0000
   1081 H8        -4.0354    -3.2596  2676.2899 H        817 DA      0.0000
   1082 H2        -0.6226     2.2038  2676.5008 H        817 DA      0.0000
   1083 H61        1.8638    -1.6559  2676.1643 H        817 DA      0.0000
   1084 H62        0.7668    -2.7498  2675.3626 H        817 DA      0.0000
   1085 P         -8.7365     0.3813  2675.7008 P.3      816 DA      0.0000
   1086 OP1       -9.7956     1.3968  2676.2207 O.co2    816 DA      0.0000
   1087 OP2       -9.4020    -0.5799  2674.7671 O.co2    816 DA      0.0000
   1088 O5'       -7.5267     1.2563  2675.1981 O.3      816 DA      0.0000
   1089 C5'       -7.3833     2.6175  2675.6540 C.3      816 DA      0.0000
   1090 C4'       -6.1727     3.1932  2674.9520 C.3      816 DA      0.0000
   1091 O4'       -5.1000     2.3030  2674.8313 O.3      816 DA      0.0000
   1092 C3'       -6.4718     3.7073  2673.5445 C.3      816 DA      0.0000
   1093 O3'       -6.3121     5.1382  2673.5131 O.3      816 DA      0.0000
   1094 C2'       -5.5744     2.8554  2672.6449 C.3      816 DA      0.0000
   1095 C1'       -4.4288     2.4983  2673.5427 C.3      816 DA      0.0000
   1096 N9        -3.7308     1.2524  2673.2431 N.ar     816 DA      0.0000
   1097 C8        -4.2464    -0.0123  2673.0484 C.ar     816 DA      0.0000
   1098 N7        -3.3307    -0.9324  2672.8429 N.ar     816 DA      0.0000
   1099 C5        -2.1361    -0.2429  2672.9175 C.ar     816 DA      0.0000
   1100 C6        -0.7940    -0.6637  2672.7840 C.ar     816 DA      0.0000
   1101 N6        -0.4325    -1.9198  2672.5408 N.pl3    816 DA      0.0000
   1102 N1         0.1456     0.3247  2672.9328 N.ar     816 DA      0.0000
   1103 C2        -0.1902     1.6044  2673.1854 C.ar     816 DA      0.0000
   1104 N3        -1.4337     2.0740  2673.3242 N.ar     816 DA      0.0000
   1105 C4        -2.3572     1.0979  2673.1770 C.ar     816 DA      0.0000
   1106 H5'       -8.2729     3.1933  2675.3988 H        816 DA      0.0000
   1107 H5''      -7.2285     2.6329  2676.7328 H        816 DA      0.0000
   1108 H4'       -5.8270     4.0418  2675.5422 H        816 DA      0.0000
   1109 H3'       -7.5104     3.4745  2673.3095 H        816 DA      0.0000
   1110 H2'       -6.0977     1.9616  2672.3051 H        816 DA      0.0000
   1111 H2''      -5.2241     3.4390  2671.7936 H        816 DA      0.0000
   1112 H1'       -3.7213     3.3254  2673.6038 H        816 DA      0.0000
   1113 H8        -5.3049    -0.2265  2673.0634 H        816 DA      0.0000
   1114 H2         0.6175     2.3145  2673.2844 H        816 DA      0.0000
   1115 H61        0.5023    -2.1645  2672.8348 H        816 DA      0.0000
   1116 H62       -1.0493    -2.5828  2672.0935 H        816 DA      0.0000
   1117 P         -6.5608     5.9205  2672.1281 P.3      815 DT      0.0000
   1118 OP1       -6.7017     7.4104  2672.1862 O.co2    815 DT      0.0000
   1119 OP2       -7.7560     5.1833  2671.6155 O.co2    815 DT      0.0000
   1120 O5'       -5.0802     5.6185  2671.4249 O.3      815 DT      0.0000
   1121 C5'       -4.0387     5.7639  2672.4373 C.3      815 DT      0.0000
   1122 C4'       -2.7365     6.0357  2671.7543 C.3      815 DT      0.0000
   1123 O4'       -1.9520     4.8947  2671.5739 O.3      815 DT      0.0000
   1124 C3'       -2.8743     6.6998  2670.3931 C.3      815 DT      0.0000
   1125 O3'       -1.8417     7.6566  2670.1258 O.3      815 DT      0.0000
   1126 C2'       -2.8552     5.4526  2669.4997 C.3      815 DT      0.0000
   1127 C1'       -1.7544     4.6341  2670.1397 C.3      815 DT      0.0000
   1128 N1        -1.9577     3.1913  2669.9098 N.am     815 DT      0.0000
   1129 C2        -0.8302     2.3984  2669.7882 C.2      815 DT      0.0000
   1130 O2         0.2998     2.8879  2669.8249 O.2      815 DT      0.0000
   1131 N3        -1.0072     1.0518  2669.6207 N.am     815 DT      0.0000
   1132 C4        -2.2447     0.4896  2669.5722 C.2      815 DT      0.0000
   1133 O4        -2.3151    -0.7620  2669.3867 O.2      815 DT      0.0000
   1134 C5        -3.3907     1.3201  2669.7206 C.2      815 DT      0.0000
   1135 C7        -4.7803     0.7310  2669.6685 C.3      815 DT      0.0000
   1136 C6        -3.2008     2.6323  2669.8936 C.2      815 DT      0.0000
   1137 H5'       -4.2850     6.5941  2673.0994 H        815 DT      0.0000
   1138 H5''      -3.9620     4.8443  2673.0173 H        815 DT      0.0000
   1139 H4'       -2.1735     6.7178  2672.3914 H        815 DT      0.0000
   1140 H3'       -3.8479     7.1846  2670.3210 H        815 DT      0.0000
   1141 H2'       -3.8098     4.9273  2669.5303 H        815 DT      0.0000
   1142 H2''      -2.5933     5.7164  2668.4751 H        815 DT      0.0000
   1143 H1'       -0.7686     4.9579  2669.8058 H        815 DT      0.0000
   1144 H3        -0.1952     0.4580  2669.5306 H        815 DT      0.0000
   1145 H6        -4.0618     3.2711  2670.0250 H        815 DT      0.0000
   1146 H71       -5.1862     0.8446  2668.6633 H        815 DT      0.0000
   1147 H72       -5.4219     1.2508  2670.3801 H        815 DT      0.0000
   1148 H73       -4.7361    -0.3275  2669.9250 H        815 DT      0.0000
   1149 P         -1.8701     8.3302  2668.6359 P.3      814 DT      0.0000
   1150 OP1       -2.1857     9.8198  2668.7838 O.co2    814 DT      0.0000
   1151 OP2       -3.0200     7.6341  2667.9660 O.co2    814 DT      0.0000
   1152 O5'       -0.4853     8.0859  2667.9838 O.3      814 DT      0.0000
   1153 C5'        0.7234     7.9741  2668.7352 C.3      814 DT      0.0000
   1154 C4'        1.6592     7.0796  2667.9872 C.3      814 DT      0.0000
   1155 O4'        1.3710     5.7087  2667.9302 O.3      814 DT      0.0000
   1156 C3'        1.9760     7.4463  2666.5212 C.3      814 DT      0.0000
   1157 O3'        3.3433     7.0376  2666.4174 O.3      814 DT      0.0000
   1158 C2'        1.0341     6.5061  2665.7574 C.3      814 DT      0.0000
   1159 C1'        1.3593     5.2461  2666.5332 C.3      814 DT      0.0000
   1160 N1         0.3816     4.1593  2666.4270 N.am     814 DT      0.0000
   1161 C2         0.9196     2.8653  2666.4264 C.2      814 DT      0.0000
   1162 O2         2.1380     2.6828  2666.4694 O.2      814 DT      0.0000
   1163 N3         0.0363     1.8257  2666.3729 N.am     814 DT      0.0000
   1164 C4        -1.3136     2.0065  2666.3132 C.2      814 DT      0.0000
   1165 O4        -2.0501     0.9765  2666.2508 O.2      814 DT      0.0000
   1166 C5        -1.8325     3.3299  2666.3214 C.2      814 DT      0.0000
   1167 C7        -3.3303     3.5455  2666.2600 C.3      814 DT      0.0000
   1168 C6        -0.9648     4.3439  2666.3879 C.2      814 DT      0.0000
   1169 H5'        1.1739     8.9591  2668.8574 H        814 DT      0.0000
   1170 H5''       0.5088     7.5448  2669.7138 H        814 DT      0.0000
   1171 H4'        2.6104     7.1523  2668.5145 H        814 DT      0.0000
   1172 H3'        1.8183     8.5003  2666.2925 H        814 DT      0.0000
   1173 H2'        1.2932     6.4240  2664.7019 H        814 DT      0.0000
   1174 H2''      -0.0085     6.7956  2665.8890 H        814 DT      0.0000
   1175 H1'        2.3487     4.8836  2666.2541 H        814 DT      0.0000
   1176 H3         0.3983     0.8828  2666.3778 H        814 DT      0.0000
   1177 H6        -1.3493     5.3528  2666.4116 H        814 DT      0.0000
   1178 H71       -3.8350     2.5806  2666.2112 H        814 DT      0.0000
   1179 H72       -3.5770     4.1296  2665.3734 H        814 DT      0.0000
   1180 H73       -3.6570     4.0817  2667.1509 H        814 DT      0.0000
   1181 P          4.3330     7.3800  2665.2712 P.3      813 DC      0.0000
   1182 OP1        5.6422     7.8852  2665.8803 O.co2    813 DC      0.0000
   1183 OP2        3.6852     8.4794  2664.4893 O.co2    813 DC      0.0000
   1184 O5'        4.4692     5.9347  2664.5318 O.3      813 DC      0.0000
   1185 C5'        5.2690     4.9434  2665.2563 C.3      813 DC      0.0000
   1186 C4'        5.9645     4.1171  2664.2058 C.3      813 DC      0.0000
   1187 O4'        5.3021     2.8984  2663.9605 O.3      813 DC      0.0000
   1188 C3'        6.1176     4.7914  2662.8413 C.3      813 DC      0.0000
   1189 O3'        7.3072     4.4384  2662.1321 O.3      813 DC      0.0000
   1190 C2'        4.8197     4.3434  2662.1552 C.3      813 DC      0.0000
   1191 C1'        4.6295     2.9298  2662.7018 C.3      813 DC      0.0000
   1192 N1         3.1740     2.6780  2662.8196 N.am     813 DC      0.0000
   1193 C2         2.7608     1.3466  2662.8368 C.2      813 DC      0.0000
   1194 O2         3.5806     0.4206  2662.7682 O.2      813 DC      0.0000
   1195 N3         1.4167     1.1092  2662.9401 N.2      813 DC      0.0000
   1196 C4         0.5085     2.1173  2663.0108 C.2      813 DC      0.0000
   1197 N4        -0.7921     1.8349  2663.1128 N.pl3    813 DC      0.0000
   1198 C5         0.9571     3.4673  2662.9857 C.2      813 DC      0.0000
   1199 C6         2.2776     3.6996  2662.8921 C.2      813 DC      0.0000
   1200 H5'        6.0015     5.4405  2665.8923 H        813 DC      0.0000
   1201 H5''       4.6197     4.3094  2665.8602 H        813 DC      0.0000
   1202 H4'        6.9633     3.8837  2664.5745 H        813 DC      0.0000
   1203 H3'        6.0926     5.8727  2662.9755 H        813 DC      0.0000
   1204 H2'        4.9298     4.3351  2661.0708 H        813 DC      0.0000
   1205 H2''       3.9888     4.9838  2662.4512 H        813 DC      0.0000
   1206 H1'        5.0784     2.2052  2662.0224 H        813 DC      0.0000
   1207 H5         0.2539     4.2852  2663.0405 H        813 DC      0.0000
   1208 H6         2.6350     4.7186  2662.8740 H        813 DC      0.0000
   1209 H41       -1.1000     0.8732  2663.1335 H        813 DC      0.0000
   1210 H42       -1.4684     2.5830  2663.1691 H        813 DC      0.0000
   1211 P          7.4360     4.2433  2660.5001 P.3      812 DA      0.0000
   1212 OP1        8.8846     4.4448  2660.1106 O.co2    812 DA      0.0000
   1213 OP2        6.4912     5.2418  2659.9300 O.co2    812 DA      0.0000
   1214 O5'        7.0873     2.6943  2660.3345 O.3      812 DA      0.0000
   1215 C5'        8.0871     1.7066  2660.7999 C.3      812 DA      0.0000
   1216 C4'        7.7698     0.5075  2659.9227 C.3      812 DA      0.0000
   1217 O4'        6.4377     0.0510  2660.1900 O.3      812 DA      0.0000
   1218 C3'        7.7740     0.8324  2658.4183 C.3      812 DA      0.0000
   1219 O3'        7.8513    -0.3441  2657.6292 O.3      812 DA      0.0000
   1220 C2'        6.3370     1.3529  2658.2308 C.3      812 DA      0.0000
   1221 C1'        5.6690     0.1711  2658.9855 C.3      812 DA      0.0000
   1222 N9         4.2737     0.5728  2659.1309 N.ar     812 DA      0.0000
   1223 C8         3.7964     1.8623  2659.2037 C.ar     812 DA      0.0000
   1224 N7         2.4937     1.9286  2659.3184 N.ar     812 DA      0.0000
   1225 C5         2.0934     0.5804  2659.3120 C.ar     812 DA      0.0000
   1226 C6         0.8033    -0.0092  2659.4119 C.ar     812 DA      0.0000
   1227 N6        -0.3271     0.6926  2659.5348 N.pl3    812 DA      0.0000
   1228 N1         0.8025    -1.3712  2659.3768 N.ar     812 DA      0.0000
   1229 C2         1.9495    -2.0839  2659.2579 C.ar     812 DA      0.0000
   1230 N3         3.1903    -1.5968  2659.1664 N.ar     812 DA      0.0000
   1231 C4         3.1784    -0.2527  2659.1940 C.ar     812 DA      0.0000
   1232 H5'        9.1038     2.0623  2660.6332 H        812 DA      0.0000
   1233 H5''       7.9306     1.4665  2661.8516 H        812 DA      0.0000
   1234 H4'        8.4798    -0.2940  2660.1266 H        812 DA      0.0000
   1235 H3'        8.5286     1.5713  2658.1486 H        812 DA      0.0000
   1236 H2'        6.1670     2.3158  2658.7124 H        812 DA      0.0000
   1237 H2''       6.0501     1.3726  2657.1794 H        812 DA      0.0000
   1238 H1'        5.7409    -0.7436  2658.3970 H        812 DA      0.0000
   1239 H8         4.4339     2.7335  2659.1697 H        812 DA      0.0000
   1240 H2         1.8498    -3.1589  2659.2347 H        812 DA      0.0000
   1241 H61       -0.2948     1.7017  2659.5595 H        812 DA      0.0000
   1242 H62       -1.2138     0.2139  2659.6029 H        812 DA      0.0000
   1243 P          8.9467    -0.4858  2656.4883 P.3      811 DC      0.0000
   1244 OP1       10.1646    -0.9522  2657.2686 O.co2    811 DC      0.0000
   1245 OP2        9.1739     0.7690  2655.7627 O.co2    811 DC      0.0000
   1246 O5'        8.2255    -1.5958  2655.5124 O.3      811 DC      0.0000
   1247 C5'        7.7667    -2.8321  2656.1815 C.3      811 DC      0.0000
   1248 C4'        6.4793    -3.2744  2655.5374 C.3      811 DC      0.0000
   1249 O4'        5.3145    -2.7642  2656.1746 O.3      811 DC      0.0000
   1250 C3'        6.3761    -2.8601  2654.0596 C.3      811 DC      0.0000
   1251 O3'        5.6655    -3.7870  2653.2483 O.3      811 DC      0.0000
   1252 C2'        5.5177    -1.5634  2654.2253 C.3      811 DC      0.0000
   1253 C1'        4.4491    -2.2919  2655.1208 C.3      811 DC      0.0000
   1254 N1         3.3870    -1.3498  2655.3587 N.am     811 DC      0.0000
   1255 C2         2.1298    -1.8380  2655.6759 C.2      811 DC      0.0000
   1256 O2         1.7482    -3.0054  2655.8163 O.2      811 DC      0.0000
   1257 N3         1.1223    -0.9351  2655.8741 N.2      811 DC      0.0000
   1258 C4         1.3240     0.4127  2655.7581 C.2      811 DC      0.0000
   1259 N4         0.3069     1.2615  2655.9742 N.pl3    811 DC      0.0000
   1260 C5         2.6194     0.8986  2655.4285 C.2      811 DC      0.0000
   1261 C6         3.5884    -0.0040  2655.2368 C.2      811 DC      0.0000
   1262 H5'        8.5203    -3.6118  2656.0700 H        811 DC      0.0000
   1263 H5''       7.5978    -2.6347  2657.2401 H        811 DC      0.0000
   1264 H4'        6.4376    -4.3626  2655.5842 H        811 DC      0.0000
   1265 H3'        7.3571    -2.6361  2653.6406 H        811 DC      0.0000
   1266 H2'        6.0416    -0.7595  2654.7424 H        811 DC      0.0000
   1267 H2''       5.0956    -1.2305  2653.2770 H        811 DC      0.0000
   1268 H1'        4.0510    -3.1479  2654.5759 H        811 DC      0.0000
   1269 H5         2.8137     1.9570  2655.3363 H        811 DC      0.0000
   1270 H6         4.5751     0.3475  2654.9735 H        811 DC      0.0000
   1271 H41       -0.6066     0.9042  2656.2147 H        811 DC      0.0000
   1272 H42        0.4551     2.2575  2655.8962 H        811 DC      0.0000
   1273 P        -10.0188     0.0763  2689.8475 P.3      821 DG      0.0000
   1274 OP1      -11.3186     0.7918  2689.8459 O.co2    821 DG      0.0000
   1275 OP2       -9.1378     0.7602  2690.9032 O.co2    821 DG      0.0000
   1276 O5'      -10.0684    -1.5040  2690.0259 O.3      821 DG      0.0000
   1277 C5'       -9.9312    -2.5358  2689.0259 C.3      821 DG      0.0000
   1278 C4'       -8.9169    -3.5438  2689.5247 C.3      821 DG      0.0000
   1279 O4'       -7.6064    -3.2299  2689.1055 O.3      821 DG      0.0000
   1280 C3'       -8.8447    -3.7975  2691.0169 C.3      821 DG      0.0000
   1281 O3'       -8.9879    -5.2095  2691.3289 O.3      821 DG      0.0000
   1282 C2'       -7.5060    -3.2223  2691.4387 C.3      821 DG      0.0000
   1283 C1'       -6.6724    -3.3074  2690.1831 C.3      821 DG      0.0000
   1284 N9        -5.6891    -2.2095  2690.1540 N.ar     821 DG      0.0000
   1285 C8        -5.8743    -0.8665  2690.3829 C.ar     821 DG      0.0000
   1286 N7        -4.7763    -0.1504  2690.2932 N.ar     821 DG      0.0000
   1287 C5        -3.7955    -1.0865  2689.9762 C.ar     821 DG      0.0000
   1288 C6        -2.4030    -0.9549  2689.7503 C.2      821 DG      0.0000
   1289 O6        -1.7208     0.0700  2689.7716 O.2      821 DG      0.0000
   1290 N1        -1.7460    -2.1213  2689.4688 N.am     821 DG      0.0000
   1291 C2        -2.3405    -3.2697  2689.4081 C.2      821 DG      0.0000
   1292 N2        -1.5060    -4.1888  2689.1113 N.pl3    821 DG      0.0000
   1293 N3        -3.7038    -3.5013  2689.6169 N.2      821 DG      0.0000
   1294 C4        -4.3411    -2.3536  2689.8894 C.ar     821 DG      0.0000
   1295 H5'      -10.8917    -3.0262  2688.8671 H        821 DG      0.0000
   1296 H5''      -9.5838    -2.0971  2688.0905 H        821 DG      0.0000
   1297 H4'       -9.1716    -4.4962  2689.0600 H        821 DG      0.0000
   1298 H3'       -9.6418    -3.2419  2691.5108 H        821 DG      0.0000
   1299 H2'       -7.6126    -2.1880  2691.7657 H        821 DG      0.0000
   1300 H2''      -7.0643    -3.8277  2692.2302 H        821 DG      0.0000
   1301 H1'       -6.1538    -4.2656  2690.1512 H        821 DG      0.0000
   1302 H8        -6.8378    -0.4378  2690.6160 H        821 DG      0.0000
   1303 H1        -0.7508    -2.0847  2689.3004 H        821 DG      0.0000
   1304 H21       -0.5329    -3.9600  2688.9670 H        821 DG      0.0000
   1305 H22       -1.8187    -5.1449  2689.0209 H        821 DG      0.0000
   1306 P         -8.6730    -5.8033  2692.7574 P.3      822 DT      0.0000
   1307 OP1       -9.6250    -6.8532  2693.2691 O.co2    822 DT      0.0000
   1308 OP2       -8.8994    -4.5889  2693.6761 O.co2    822 DT      0.0000
   1309 O5'       -7.1720    -6.1895  2692.7860 O.3      822 DT      0.0000
   1310 C5'       -6.7008    -7.5576  2692.6420 C.3      822 DT      0.0000
   1311 C4'       -5.1914    -7.4494  2692.6995 C.3      822 DT      0.0000
   1312 O4'       -4.7398    -6.1416  2692.4243 O.3      822 DT      0.0000
   1313 C3'       -4.5428    -7.8094  2694.0122 C.3      822 DT      0.0000
   1314 O3'       -3.7364    -8.9815  2693.8240 O.3      822 DT      0.0000
   1315 C2'       -3.6939    -6.6003  2694.4045 C.3      822 DT      0.0000
   1316 C1'       -3.4331    -5.9905  2693.0517 C.3      822 DT      0.0000
   1317 N1        -3.1581    -4.5568  2693.1483 N.am     822 DT      0.0000
   1318 C2        -1.8672    -4.1478  2692.9504 C.2      822 DT      0.0000
   1319 O2        -0.9546    -4.9356  2692.7122 O.2      822 DT      0.0000
   1320 N3        -1.6196    -2.8039  2693.0315 N.am     822 DT      0.0000
   1321 C4        -2.5855    -1.8927  2693.2874 C.2      822 DT      0.0000
   1322 O4        -2.2059    -0.6933  2693.3327 O.2      822 DT      0.0000
   1323 C5        -3.9312    -2.3392  2693.4871 C.2      822 DT      0.0000
   1324 C7        -5.0285    -1.3644  2693.7670 C.3      822 DT      0.0000
   1325 C6        -4.1642    -3.6554  2693.4056 C.2      822 DT      0.0000
   1326 H5'       -7.0732    -8.1803  2693.4554 H        822 DT      0.0000
   1327 H5''      -7.0137    -7.9654  2691.6808 H        822 DT      0.0000
   1328 H4'       -4.7820    -8.1096  2691.9350 H        822 DT      0.0000
   1329 H3'       -5.3047    -7.9950  2694.7693 H        822 DT      0.0000
   1330 H2'       -4.2430    -5.9179  2695.0533 H        822 DT      0.0000
   1331 H2''      -2.7622    -6.9164  2694.8737 H        822 DT      0.0000
   1332 H1'       -2.6529    -6.5216  2692.5064 H        822 DT      0.0000
   1333 H3        -0.6734    -2.4785  2692.8940 H        822 DT      0.0000
   1334 H6        -5.1713    -4.0195  2693.5460 H        822 DT      0.0000
   1335 H71       -5.6141    -1.2058  2692.8614 H        822 DT      0.0000
   1336 H72       -4.5983    -0.4170  2694.0917 H        822 DT      0.0000
   1337 H73       -5.6734    -1.7588  2694.5523 H        822 DT      0.0000
   1338 P         -3.7635    -9.9850  2695.1040 P.3      823 DG      0.0000
   1339 OP1       -3.7217   -11.3295  2694.3889 O.co2    823 DG      0.0000
   1340 OP2       -4.9829    -9.7538  2695.8575 O.co2    823 DG      0.0000
   1341 O5'       -2.3254    -9.5109  2695.7135 O.3      823 DG      0.0000
   1342 C5'       -1.3309    -9.4413  2694.6229 C.3      823 DG      0.0000
   1343 C4'       -0.1373    -8.6958  2695.1429 C.3      823 DG      0.0000
   1344 O4'       -0.1398    -7.3049  2694.9624 O.3      823 DG      0.0000
   1345 C3'        0.1072    -8.9478  2696.6510 C.3      823 DG      0.0000
   1346 O3'        1.4714    -9.4071  2696.8098 O.3      823 DG      0.0000
   1347 C2'       -0.2385    -7.6263  2697.3035 C.3      823 DG      0.0000
   1348 C1'        0.1649    -6.6310  2696.2220 C.3      823 DG      0.0000
   1349 N9        -0.5271    -5.3484  2696.3915 N.ar     823 DG      0.0000
   1350 C8        -1.8327    -5.1185  2696.7277 C.ar     823 DG      0.0000
   1351 N7        -2.1611    -3.8482  2696.8135 N.ar     823 DG      0.0000
   1352 C5        -0.9750    -3.1965  2696.4834 C.ar     823 DG      0.0000
   1353 C6        -0.6700    -1.8085  2696.3891 C.2      823 DG      0.0000
   1354 O6        -1.4246    -0.8435  2696.5814 O.2      823 DG      0.0000
   1355 N1         0.6364    -1.5349  2696.0541 N.am     823 DG      0.0000
   1356 C2         1.5452    -2.5237  2695.8303 C.2      823 DG      0.0000
   1357 N2         2.7679    -2.0724  2695.5215 N.pl3    823 DG      0.0000
   1358 N3         1.3086    -3.8317  2695.9013 N.2      823 DG      0.0000
   1359 C4         0.0330    -4.1013  2696.2279 C.ar     823 DG      0.0000
   1360 H5'       -1.0384   -10.4474  2694.3224 H        823 DG      0.0000
   1361 H5''      -1.7547    -8.9104  2693.7705 H        823 DG      0.0000
   1362 H4'        0.7330    -9.0821  2694.6124 H        823 DG      0.0000
   1363 H3'       -0.5781    -9.7176  2697.0057 H        823 DG      0.0000
   1364 H2'       -1.3034    -7.5603  2697.5265 H        823 DG      0.0000
   1365 H2''       0.3540    -7.4757  2698.2059 H        823 DG      0.0000
   1366 H1'        1.2401    -6.4623  2696.2809 H        823 DG      0.0000
   1367 H8        -2.5376    -5.9166  2696.9084 H        823 DG      0.0000
   1368 H1         0.9298    -0.5719  2695.9717 H        823 DG      0.0000
   1369 H21        2.9417    -1.0788  2695.4713 H        823 DG      0.0000
   1370 H22        3.5162    -2.7258  2695.3388 H        823 DG      0.0000
   1371 P          2.0237    -9.8664  2698.1982 P.3      824 DA      0.0000
   1372 OP1        1.8422   -11.3065  2698.5536 O.co2    824 DA      0.0000
   1373 OP2        1.0384    -9.0293  2699.0940 O.co2    824 DA      0.0000
   1374 O5'        3.4355    -9.1885  2698.4474 O.3      824 DA      0.0000
   1375 C5'        4.3082    -8.6994  2697.4183 C.3      824 DA      0.0000
   1376 C4'        4.7574    -7.3268  2697.8926 C.3      824 DA      0.0000
   1377 O4'        3.6939    -6.4030  2697.8023 O.3      824 DA      0.0000
   1378 C3'        5.2946    -7.2471  2699.3217 C.3      824 DA      0.0000
   1379 O3'        6.5303    -6.5047  2699.3740 O.3      824 DA      0.0000
   1380 C2'        4.1444    -6.5486  2700.0571 C.3      824 DA      0.0000
   1381 C1'        3.7353    -5.5559  2698.9795 C.3      824 DA      0.0000
   1382 N9         2.4230    -4.9427  2699.2079 N.ar     824 DA      0.0000
   1383 C8         1.2068    -5.5262  2699.4237 C.ar     824 DA      0.0000
   1384 N7         0.2256    -4.6672  2699.5887 N.ar     824 DA      0.0000
   1385 C5         0.8387    -3.4311  2699.4485 C.ar     824 DA      0.0000
   1386 C6         0.3201    -2.1186  2699.4964 C.ar     824 DA      0.0000
   1387 N6        -0.9629    -1.8214  2699.7162 N.pl3    824 DA      0.0000
   1388 N1         1.2362    -1.1230  2699.3066 N.ar     824 DA      0.0000
   1389 C2         2.5421    -1.4023  2699.0889 C.ar     824 DA      0.0000
   1390 N3         3.1008    -2.6106  2699.0306 N.ar     824 DA      0.0000
   1391 C4         2.1846    -3.5781  2699.2175 C.ar     824 DA      0.0000
   1392 H5'        3.7746    -8.6201  2696.4711 H        824 DA      0.0000
   1393 H5''       5.1687    -9.3596  2697.3105 H        824 DA      0.0000
   1394 H4'        5.5477    -6.9877  2697.2228 H        824 DA      0.0000
   1395 H3'        5.4422    -8.2497  2699.7231 H        824 DA      0.0000
   1396 H2'        3.3378    -7.2394  2700.3026 H        824 DA      0.0000
   1397 H2''       4.5042    -6.0338  2700.9480 H        824 DA      0.0000
   1398 H1'        4.4982    -4.7857  2698.8650 H        824 DA      0.0000
   1399 H8         1.0644    -6.5962  2699.4558 H        824 DA      0.0000
   1400 H2         3.2003    -0.5577  2698.9475 H        824 DA      0.0000
   1401 H61       -1.7319    -2.4689  2699.6188 H        824 DA      0.0000
   1402 H62       -1.2717    -0.8752  2699.5447 H        824 DA      0.0000
   1403 P          7.6774    -6.7865  2700.5154 P.3      825 DA      0.0000
   1404 OP1        8.9550    -7.2318  2699.8484 O.co2    825 DA      0.0000
   1405 OP2        7.0075    -7.8076  2701.3463 O.co2    825 DA      0.0000
   1406 O5'        8.0028    -5.3177  2701.0463 O.3      825 DA      0.0000
   1407 C5'        8.5300    -4.2796  2700.2219 C.3      825 DA      0.0000
   1408 C4'        8.0096    -2.9519  2700.7442 C.3      825 DA      0.0000
   1409 O4'        6.6103    -2.9309  2700.7724 O.3      825 DA      0.0000
   1410 C3'        8.4923    -2.4999  2702.1115 C.3      825 DA      0.0000
   1411 O3'        9.2547    -1.2956  2702.0337 O.3      825 DA      0.0000
   1412 C2'        7.2054    -2.4044  2702.9403 C.3      825 DA      0.0000
   1413 C1'        6.1288    -2.2001  2701.9465 C.3      825 DA      0.0000
   1414 N9         4.7637    -2.6878  2702.2145 N.ar     825 DA      0.0000
   1415 C8         4.2912    -3.9727  2702.3297 C.ar     825 DA      0.0000
   1416 N7         2.9928    -4.0540  2702.4990 N.ar     825 DA      0.0000
   1417 C5         2.5700    -2.7292  2702.4620 C.ar     825 DA      0.0000
   1418 C6         1.2777    -2.1431  2702.5825 C.ar     825 DA      0.0000
   1419 N6         0.1452    -2.8079  2702.7741 N.pl3    825 DA      0.0000
   1420 N1         1.2359    -0.7747  2702.4843 N.ar     825 DA      0.0000
   1421 C2         2.3807    -0.0563  2702.2952 C.ar     825 DA      0.0000
   1422 N3         3.6137    -0.5380  2702.1873 N.ar     825 DA      0.0000
   1423 C4         3.6389    -1.8828  2702.2792 C.ar     825 DA      0.0000
   1424 H5'        8.2041    -4.4244  2699.1919 H        825 DA      0.0000
   1425 H5''       9.6190    -4.2910  2700.2679 H        825 DA      0.0000
   1426 H4'        8.3218    -2.1887  2700.0315 H        825 DA      0.0000
   1427 H3'        9.1213    -3.2830  2702.5347 H        825 DA      0.0000
   1428 H2'        7.0407    -3.3248  2703.5005 H        825 DA      0.0000
   1429 H2''       7.2571    -1.5538  2703.6199 H        825 DA      0.0000
   1430 H1'        6.0780    -1.1395  2701.7004 H        825 DA      0.0000
   1431 H8         4.9328    -4.8402  2702.2849 H        825 DA      0.0000
   1432 H2         2.2727     1.0161  2702.2260 H        825 DA      0.0000
   1433 H61        0.1300    -3.7637  2703.1003 H        825 DA      0.0000
   1434 H62       -0.7314    -2.3422  2702.5873 H        825 DA      0.0000
   1435 P         10.5120    -0.9093  2702.9899 P.3      826 DT      0.0000
   1436 OP1       11.6479    -0.2784  2702.1926 O.co2    826 DT      0.0000
   1437 OP2       10.8964    -2.0386  2703.8105 O.co2    826 DT      0.0000
   1438 O5'        9.9194     0.3913  2703.8036 O.3      826 DT      0.0000
   1439 C5'        9.1399     1.2422  2702.8585 C.3      826 DT      0.0000
   1440 C4'        7.9230     1.6562  2703.6463 C.3      826 DT      0.0000
   1441 O4'        6.9915     0.6153  2703.8382 O.3      826 DT      0.0000
   1442 C3'        8.2836     2.1404  2705.0628 C.3      826 DT      0.0000
   1443 O3'        8.3418     3.5548  2705.0645 O.3      826 DT      0.0000
   1444 C2'        7.2034     1.5414  2705.9601 C.3      826 DT      0.0000
   1445 C1'        6.1781     1.0960  2704.9955 C.3      826 DT      0.0000
   1446 N1         5.2604     0.0202  2705.3352 N.am     826 DT      0.0000
   1447 C2         3.9181     0.3593  2705.4732 C.2      826 DT      0.0000
   1448 O2         3.5740     1.5310  2705.3851 O.2      826 DT      0.0000
   1449 N3         3.0249    -0.6373  2705.7272 N.am     826 DT      0.0000
   1450 C4         3.3947    -1.9464  2705.8473 C.2      826 DT      0.0000
   1451 O4         2.5026    -2.8170  2706.1025 O.2      826 DT      0.0000
   1452 C5         4.7798    -2.2748  2705.6757 C.2      826 DT      0.0000
   1453 C7         5.2369    -3.7045  2705.7632 C.3      826 DT      0.0000
   1454 C6         5.6563    -1.2882  2705.4200 C.2      826 DT      0.0000
   1455 H5'        9.7196     2.1146  2702.5569 H        826 DT      0.0000
   1456 H5''       8.8451     0.6630  2701.9835 H        826 DT      0.0000
   1457 H4'        7.4283     2.4707  2703.1171 H        826 DT      0.0000
   1458 H3'        9.2556     1.7373  2705.3472 H        826 DT      0.0000
   1459 H2'        7.5930     0.7003  2706.5335 H        826 DT      0.0000
   1460 H2''       6.7959     2.3016  2706.6265 H        826 DT      0.0000
   1461 H1'        5.5978     1.9624  2704.6781 H        826 DT      0.0000
   1462 H3         2.0490    -0.3983  2705.8309 H        826 DT      0.0000
   1463 H6         6.6985    -1.5334  2705.2778 H        826 DT      0.0000
   1464 H71        4.3827    -4.3472  2705.9763 H        826 DT      0.0000
   1465 H72        5.6865    -4.0005  2704.8155 H        826 DT      0.0000
   1466 H73        5.9731    -3.8024  2706.5610 H        826 DT      0.0000
   1467 P          8.8629     4.5106  2706.1711 P.3      827 DT      0.0000
   1468 OP1        9.2646     5.8775  2705.5591 O.co2    827 DT      0.0000
   1469 OP2       10.0215     3.8264  2706.8011 O.co2    827 DT      0.0000
   1470 O5'        7.5669     4.8477  2707.0535 O.3      827 DT      0.0000
   1471 C5'        6.6144     5.6826  2706.3417 C.3      827 DT      0.0000
   1472 C4'        5.2914     5.5807  2707.0179 C.3      827 DT      0.0000
   1473 O4'        4.7336     4.2726  2706.9945 O.3      827 DT      0.0000
   1474 C3'        5.2920     6.0352  2708.4845 C.3      827 DT      0.0000
   1475 O3'        4.1554     6.8356  2708.7485 O.3      827 DT      0.0000
   1476 C2'        5.1611     4.6808  2709.2208 C.3      827 DT      0.0000
   1477 C1'        4.1128     4.0641  2708.3173 C.3      827 DT      0.0000
   1478 N1         3.9296     2.6556  2708.6150 N.am     827 DT      0.0000
   1479 C2         2.6393     2.1540  2708.6698 C.2      827 DT      0.0000
   1480 O2         1.6933     2.9203  2708.4813 O.2      827 DT      0.0000
   1481 N3         2.4737     0.8240  2708.9357 N.am     827 DT      0.0000
   1482 C4         3.5282    -0.0114  2709.1427 C.2      827 DT      0.0000
   1483 O4         3.2982    -1.2344  2709.3660 O.2      827 DT      0.0000
   1484 C5         4.8513     0.5147  2709.0776 C.2      827 DT      0.0000
   1485 C7         6.0650    -0.3431  2709.2875 C.3      827 DT      0.0000
   1486 C6         4.9957     1.8232  2708.8165 C.2      827 DT      0.0000
   1487 H5'        6.9537     6.7184  2706.3541 H        827 DT      0.0000
   1488 H5''       6.5257     5.3392  2705.3110 H        827 DT      0.0000
   1489 H4'        4.6039     6.2330  2706.4794 H        827 DT      0.0000
   1490 H3'        6.2167     6.5491  2708.7469 H        827 DT      0.0000
   1491 H2'        6.0935     4.1163  2709.2196 H        827 DT      0.0000
   1492 H2''       4.7812     4.8157  2710.2335 H        827 DT      0.0000
   1493 H1'        3.1686     4.6034  2708.3929 H        827 DT      0.0000
   1494 H3         1.5373     0.4481  2708.9801 H        827 DT      0.0000
   1495 H6         5.9928     2.2348  2708.7634 H        827 DT      0.0000
   1496 H71        5.7554    -1.3692  2709.4865 H        827 DT      0.0000
   1497 H72        6.6862    -0.3184  2708.3923 H        827 DT      0.0000
   1498 H73        6.6351     0.0353  2710.1359 H        827 DT      0.0000
   1499 P          3.8849     8.2569  2709.3565 P.3      828 DC      0.0000
   1500 OP1        3.4500     9.2421  2708.2885 O.co2    828 DC      0.0000
   1501 OP2        5.1141     8.6070  2710.0914 O.co2    828 DC      0.0000
   1502 O5'        2.5393     7.8480  2710.1825 O.3      828 DC      0.0000
   1503 C5'        1.6870     7.2124  2709.1602 C.3      828 DC      0.0000
   1504 C4'        0.4440     6.7366  2709.8567 C.3      828 DC      0.0000
   1505 O4'        0.4588     5.3647  2710.1036 O.3      828 DC      0.0000
   1506 C3'        0.1040     7.4719  2711.1482 C.3      828 DC      0.0000
   1507 O3'       -1.2007     8.0305  2711.0685 O.3      828 DC      0.0000
   1508 C2'        0.3654     6.3887  2712.1970 C.3      828 DC      0.0000
   1509 C1'        0.0872     5.1157  2711.5005 C.3      828 DC      0.0000
   1510 N1         0.9427     3.9721  2711.8327 N.am     828 DC      0.0000
   1511 C2         0.2823     2.7724  2712.0885 C.2      828 DC      0.0000
   1512 O2        -0.9507     2.7056  2712.0929 O.2      828 DC      0.0000
   1513 N3         1.0550     1.6709  2712.3623 N.2      828 DC      0.0000
   1514 C4         2.4173     1.7364  2712.3524 C.2      828 DC      0.0000
   1515 N4         3.0765     0.6167  2712.6292 N.pl3    828 DC      0.0000
   1516 C5         3.0732     2.9558  2712.0744 C.2      828 DC      0.0000
   1517 C6         2.3002     4.0291  2711.8096 C.2      828 DC      0.0000
   1518 H5'        1.4286     7.9355  2708.3866 H        828 DC      0.0000
   1519 H5''       2.2101     6.3656  2708.7160 H        828 DC      0.0000
   1520 H4'       -0.3833     6.9182  2709.1708 H        828 DC      0.0000
   1521 H3'        0.8225     8.2789  2711.2915 H        828 DC      0.0000
   1522 H2'        1.4011     6.4232  2712.5349 H        828 DC      0.0000
   1523 H2''      -0.3114     6.5115  2713.0425 H        828 DC      0.0000
   1524 H1'       -0.9668     4.8499  2711.5815 H        828 DC      0.0000
   1525 H5         4.1509     3.0263  2712.0738 H        828 DC      0.0000
   1526 H6         2.7776     4.9679  2711.5705 H        828 DC      0.0000
   1527 H41        2.5678    -0.2327  2712.8284 H        828 DC      0.0000
   1528 H42        4.0864     0.6150  2712.6405 H        828 DC      0.0000
   1529 P         -1.8069     9.1965  2712.0206 P.3      829 DA      0.0000
   1530 OP1       -2.8931     9.8968  2711.2268 O.co2    829 DA      0.0000
   1531 OP2       -0.7040    10.1163  2712.3661 O.co2    829 DA      0.0000
   1532 O5'       -2.4046     8.3788  2713.3176 O.3      829 DA      0.0000
   1533 C5'       -3.3257     7.2844  2713.0223 C.3      829 DA      0.0000
   1534 C4'       -3.7081     6.5712  2714.2776 C.3      829 DA      0.0000
   1535 O4'       -3.0047     5.3490  2714.5198 O.3      829 DA      0.0000
   1536 C3'       -3.4674     7.3480  2715.5829 C.3      829 DA      0.0000
   1537 O3'       -4.2712     6.7680  2716.6128 O.3      829 DA      0.0000
   1538 C2'       -1.9765     7.0190  2715.7975 C.3      829 DA      0.0000
   1539 C1'       -2.1042     5.5030  2715.6142 C.3      829 DA      0.0000
   1540 N9        -0.7769     4.9189  2715.5199 N.ar     829 DA      0.0000
   1541 C8         0.4503     5.5108  2715.4040 C.ar     829 DA      0.0000
   1542 N7         1.4732     4.6751  2715.3854 N.ar     829 DA      0.0000
   1543 C5         0.8672     3.4313  2715.4930 C.ar     829 DA      0.0000
   1544 C6         1.3964     2.1175  2715.5275 C.ar     829 DA      0.0000
   1545 N6         2.6817     1.8252  2715.4422 N.pl3    829 DA      0.0000
   1546 N1         0.4880     1.1067  2715.6601 N.ar     829 DA      0.0000
   1547 C2        -0.8547     1.3643  2715.7402 C.ar     829 DA      0.0000
   1548 N3        -1.4257     2.5662  2715.7104 N.ar     829 DA      0.0000
   1549 C4        -0.5092     3.5574  2715.5874 C.ar     829 DA      0.0000
   1550 H5'       -4.2222     7.6872  2712.5512 H        829 DA      0.0000
   1551 H5''      -2.8449     6.5824  2712.3411 H        829 DA      0.0000
   1552 H4'       -4.7713     6.3384  2714.2187 H        829 DA      0.0000
   1553 H3'       -3.6452     8.4173  2715.4692 H        829 DA      0.0000
   1554 H2'       -1.3340     7.4789  2715.0467 H        829 DA      0.0000
   1555 H2''      -1.6539     7.2725  2716.8074 H        829 DA      0.0000
   1556 H1'       -2.5860     5.0975  2716.5038 H        829 DA      0.0000
   1557 H8         0.5741     6.5813  2715.3330 H        829 DA      0.0000
   1558 H2        -1.5116     0.5125  2715.8367 H        829 DA      0.0000
   1559 H61        3.2278     0.9949  2715.6223 H        829 DA      0.0000
   1560 H62        3.2422     2.6042  2715.1275 H        829 DA      0.0000
   1561 P         -5.8264     7.1172  2716.7533 P.3      830 DC      0.0000
   1562 OP1       -6.4156     7.6862  2715.5081 O.co2    830 DC      0.0000
   1563 OP2       -5.8309     8.0909  2717.8961 O.co2    830 DC      0.0000
   1564 O5'       -6.4926     5.7063  2717.0364 O.3      830 DC      0.0000
   1565 C5'       -6.8038     4.7839  2715.9487 C.3      830 DC      0.0000
   1566 C4'       -6.6885     3.4277  2716.6537 C.3      830 DC      0.0000
   1567 O4'       -5.3289     3.2305  2716.9656 O.3      830 DC      0.0000
   1568 C3'       -7.4680     3.3464  2717.9636 C.3      830 DC      0.0000
   1569 O3'       -8.3357     2.1922  2718.0315 O.3      830 DC      0.0000
   1570 C2'       -6.3777     3.3513  2719.0458 C.3      830 DC      0.0000
   1571 C1'       -5.2530     2.6781  2718.3696 C.3      830 DC      0.0000
   1572 N1        -3.8661     2.9702  2718.7224 N.am     830 DC      0.0000
   1573 C2        -3.0049     1.8748  2718.6955 C.2      830 DC      0.0000
   1574 O2        -3.3942     0.7323  2718.4886 O.2      830 DC      0.0000
   1575 N3        -1.6891     2.1081  2718.9486 N.2      830 DC      0.0000
   1576 C4        -1.2021     3.3508  2719.1820 C.2      830 DC      0.0000
   1577 N4         0.1055     3.4523  2719.4129 N.pl3    830 DC      0.0000
   1578 C5        -2.0888     4.4625  2719.1886 C.2      830 DC      0.0000
   1579 C6        -3.3858     4.2247  2718.9391 C.2      830 DC      0.0000
   1580 H5'       -7.8103     4.9479  2715.5639 H        830 DC      0.0000
   1581 H5''      -6.0671     4.8672  2715.1497 H        830 DC      0.0000
   1582 H4'       -7.0250     2.6388  2715.9810 H        830 DC      0.0000
   1583 H3'       -8.0724     4.2473  2718.0694 H        830 DC      0.0000
   1584 H2'       -6.1125     4.3688  2719.3328 H        830 DC      0.0000
   1585 H2''      -6.6993     2.7792  2719.9160 H        830 DC      0.0000
   1586 H1'       -5.4161     1.6005  2718.3563 H        830 DC      0.0000
   1587 H5        -1.7313     5.4621  2719.3871 H        830 DC      0.0000
   1588 H6        -4.0722     5.0580  2718.9094 H        830 DC      0.0000
   1589 H41        0.6859     2.6258  2719.4019 H        830 DC      0.0000
   1590 H42        0.5168     4.3558  2719.5991 H        830 DC      0.0000
   1591 P          7.7589    -3.4418  2720.9910 P.3      830 DG      0.0000
   1592 OP1        9.1420    -3.9822  2721.1697 O.co2    830 DG      0.0000
   1593 OP2        7.6703    -2.3766  2719.9062 O.co2    830 DG      0.0000
   1594 O5'        6.7075    -4.6912  2720.7837 O.3      830 DG      0.0000
   1595 C5'        5.8027    -5.0524  2721.8795 C.3      830 DG      0.0000
   1596 C4'        4.4675    -5.4353  2721.2452 C.3      830 DG      0.0000
   1597 O4'        3.5984    -4.3400  2721.1494 O.3      830 DG      0.0000
   1598 C3'        4.5803    -6.0179  2719.8389 C.3      830 DG      0.0000
   1599 O3'        3.6746    -7.1135  2719.5719 O.3      830 DG      0.0000
   1600 C2'        4.2820    -4.8069  2718.9366 C.3      830 DG      0.0000
   1601 C1'        3.2235    -4.0925  2719.7604 C.3      830 DG      0.0000
   1602 N9         3.2262    -2.6453  2719.4871 N.ar     830 DG      0.0000
   1603 C8         4.3119    -1.8168  2719.3305 C.ar     830 DG      0.0000
   1604 N7         3.9991    -0.5671  2719.1120 N.ar     830 DG      0.0000
   1605 C5         2.6094    -0.5663  2719.1368 C.ar     830 DG      0.0000
   1606 C6         1.6694     0.4870  2718.9804 C.2      830 DG      0.0000
   1607 O6         1.9248     1.6836  2718.7836 O.2      830 DG      0.0000
   1608 N1         0.3574     0.0912  2719.0673 N.am     830 DG      0.0000
   1609 C2        -0.0057    -1.1961  2719.2880 C.2      830 DG      0.0000
   1610 N2        -1.3138    -1.4294  2719.3513 N.pl3    830 DG      0.0000
   1611 N3         0.8375    -2.2237  2719.4457 N.2      830 DG      0.0000
   1612 C4         2.1246    -1.8346  2719.3624 C.ar     830 DG      0.0000
   1613 H5'        6.2082    -5.8965  2722.4373 H        830 DG      0.0000
   1614 H5''       5.6664    -4.1995  2722.5444 H        830 DG      0.0000
   1615 H4'        3.9957    -6.1837  2721.8819 H        830 DG      0.0000
   1616 H3'        5.6047    -6.3491  2719.6684 H        830 DG      0.0000
   1617 H2'        5.1661    -4.1856  2718.7939 H        830 DG      0.0000
   1618 H2''       3.8753    -5.1285  2717.9778 H        830 DG      0.0000
   1619 H1'        2.2390    -4.5130  2719.5552 H        830 DG      0.0000
   1620 H8         5.3320    -2.1673  2719.3832 H        830 DG      0.0000
   1621 H1        -0.3665     0.7876  2718.9625 H        830 DG      0.0000
   1622 H21       -1.9685    -0.6690  2719.2362 H        830 DG      0.0000
   1623 H22       -1.6522    -2.3669  2719.5145 H        830 DG      0.0000
   1624 P          3.2019    -7.2670  2718.0484 P.3      829 DT      0.0000
   1625 OP1        2.8642    -8.6806  2717.6575 O.co2    829 DT      0.0000
   1626 OP2        4.4205    -6.7923  2717.3479 O.co2    829 DT      0.0000
   1627 O5'        1.9048    -6.3355  2717.9175 O.3      829 DT      0.0000
   1628 C5'        0.6112    -6.9654  2718.1852 C.3      829 DT      0.0000
   1629 C4'       -0.4564    -6.2058  2717.4281 C.3      829 DT      0.0000
   1630 O4'       -0.2252    -4.8086  2717.4008 O.3      829 DT      0.0000
   1631 C3'       -0.5743    -6.6335  2715.9734 C.3      829 DT      0.0000
   1632 O3'       -1.9305    -6.6676  2715.4783 O.3      829 DT      0.0000
   1633 C2'        0.2637    -5.6024  2715.2505 C.3      829 DT      0.0000
   1634 C1'       -0.1439    -4.3623  2716.0286 C.3      829 DT      0.0000
   1635 N1         0.9490    -3.3889  2715.8773 N.am     829 DT      0.0000
   1636 C2         0.5964    -2.0474  2715.9841 C.2      829 DT      0.0000
   1637 O2        -0.5715    -1.7248  2716.1739 O.2      829 DT      0.0000
   1638 N3         1.5997    -1.1269  2715.8639 N.am     829 DT      0.0000
   1639 C4         2.8936    -1.4950  2715.6464 C.2      829 DT      0.0000
   1640 O4         3.7603    -0.5644  2715.5488 O.2      829 DT      0.0000
   1641 C5         3.2239    -2.8763  2715.5400 C.2      829 DT      0.0000
   1642 C7         4.6482    -3.2939  2715.3110 C.3      829 DT      0.0000
   1643 C6         2.2399    -3.7710  2715.6618 C.2      829 DT      0.0000
   1644 H5'        0.6311    -8.0029  2717.8514 H        829 DT      0.0000
   1645 H5''       0.3994    -6.9282  2719.2538 H        829 DT      0.0000
   1646 H4'       -1.4145    -6.3846  2717.9161 H        829 DT      0.0000
   1647 H3'       -0.1209    -7.6170  2715.8494 H        829 DT      0.0000
   1648 H2'        1.3303    -5.8079  2715.3421 H        829 DT      0.0000
   1649 H2''      -0.0310    -5.5223  2714.2041 H        829 DT      0.0000
   1650 H1'       -1.0944    -3.9599  2715.6780 H        829 DT      0.0000
   1651 H3         1.3755    -0.1449  2715.9386 H        829 DT      0.0000
   1652 H6         2.4725    -4.8230  2715.5876 H        829 DT      0.0000
   1653 H71        5.2804    -2.4086  2715.2423 H        829 DT      0.0000
   1654 H72        4.9825    -3.9151  2716.1419 H        829 DT      0.0000
   1655 H73        4.7157    -3.8615  2714.3829 H        829 DT      0.0000
   1656 P         -2.1299    -8.1198  2714.6999 P.3      828 DG      0.0000
   1657 OP1       -2.7104    -9.1857  2715.5711 O.co2    828 DG      0.0000
   1658 OP2       -0.7202    -8.3463  2714.2944 O.co2    828 DG      0.0000
   1659 O5'       -3.2377    -7.7206  2713.6191 O.3      828 DG      0.0000
   1660 C5'       -4.6203    -7.6110  2714.0426 C.3      828 DG      0.0000
   1661 C4'       -5.0556    -6.2213  2713.5948 C.3      828 DG      0.0000
   1662 O4'       -4.0264    -5.2909  2713.8655 O.3      828 DG      0.0000
   1663 C3'       -5.3905    -6.1144  2712.1071 C.3      828 DG      0.0000
   1664 O3'       -6.7018    -5.6212  2711.8986 O.3      828 DG      0.0000
   1665 C2'       -4.2726    -5.2640  2711.5304 C.3      828 DG      0.0000
   1666 C1'       -3.8372    -4.4364  2712.7165 C.3      828 DG      0.0000
   1667 N9        -2.4308    -4.0437  2712.5930 N.ar     828 DG      0.0000
   1668 C8        -1.3369    -4.8465  2712.4341 C.ar     828 DG      0.0000
   1669 N7        -0.2061    -4.1882  2712.3560 N.ar     828 DG      0.0000
   1670 C5        -0.5809    -2.8549  2712.4936 C.ar     828 DG      0.0000
   1671 C6         0.1768    -1.6542  2712.5030 C.2      828 DG      0.0000
   1672 O6         1.3949    -1.5462  2712.4040 O.2      828 DG      0.0000
   1673 N1        -0.5636    -0.5160  2712.6520 N.am     828 DG      0.0000
   1674 C2        -1.9307    -0.5465  2712.7849 C.2      828 DG      0.0000
   1675 N2        -2.5292     0.6373  2712.9205 N.pl3    828 DG      0.0000
   1676 N3        -2.7021    -1.6384  2712.7892 N.2      828 DG      0.0000
   1677 C4        -1.9545    -2.7583  2712.6385 C.ar     828 DG      0.0000
   1678 H5'       -5.2303    -8.3770  2713.5638 H        828 DG      0.0000
   1679 H5''      -4.6903    -7.6967  2715.1269 H        828 DG      0.0000
   1680 H4'       -5.9376    -5.9354  2714.1678 H        828 DG      0.0000
   1681 H3'       -5.3250    -7.1100  2711.6685 H        828 DG      0.0000
   1682 H2'       -3.4556    -5.8855  2711.1640 H        828 DG      0.0000
   1683 H2''      -4.6516    -4.6224  2710.7348 H        828 DG      0.0000
   1684 H1'       -4.4655    -3.5500  2712.8036 H        828 DG      0.0000
   1685 H8        -1.3981    -5.9233  2712.3780 H        828 DG      0.0000
   1686 H1        -0.0909     0.3765  2712.6649 H        828 DG      0.0000
   1687 H21       -1.9789     1.4842  2712.9215 H        828 DG      0.0000
   1688 H22       -3.5327     0.6870  2713.0223 H        828 DG      0.0000
   1689 P         -7.3365    -4.4620  2711.0323 P.3      827 DA      0.0000
   1690 OP1       -8.4641    -3.7756  2711.8136 O.co2    827 DA      0.0000
   1691 OP2       -7.8700    -5.1239  2709.8396 O.co2    827 DA      0.0000
   1692 O5'       -6.1728    -3.3353  2710.8575 O.3      827 DA      0.0000
   1693 C5'       -6.1263    -2.4178  2712.0139 C.3      827 DA      0.0000
   1694 C4'       -6.4538    -1.0430  2711.4861 C.3      827 DA      0.0000
   1695 O4'       -5.3053    -0.2647  2711.2639 O.3      827 DA      0.0000
   1696 C3'       -7.1867    -1.0785  2710.1456 C.3      827 DA      0.0000
   1697 O3'       -8.2224    -0.1282  2710.0704 O.3      827 DA      0.0000
   1698 C2'       -6.0475    -0.9613  2709.1491 C.3      827 DA      0.0000
   1699 C1'       -4.9163    -0.2860  2709.8729 C.3      827 DA      0.0000
   1700 N9        -3.6360    -0.9785  2709.6474 N.ar     827 DA      0.0000
   1701 C8        -3.3998    -2.3234  2709.4610 C.ar     827 DA      0.0000
   1702 N7        -2.1379    -2.6295  2709.2651 N.ar     827 DA      0.0000
   1703 C5        -1.4955    -1.4008  2709.3520 C.ar     827 DA      0.0000
   1704 C6        -0.1294    -1.0496  2709.2464 C.ar     827 DA      0.0000
   1705 N6         0.8400    -1.9221  2709.0339 N.pl3    827 DA      0.0000
   1706 N1         0.1595     0.2754  2709.3701 N.ar     827 DA      0.0000
   1707 C2        -0.8214     1.1989  2709.5946 C.ar     827 DA      0.0000
   1708 N3        -2.1213     0.9348  2709.7105 N.ar     827 DA      0.0000
   1709 C4        -2.3959    -0.3850  2709.5744 C.ar     827 DA      0.0000
   1710 H5'       -6.8599    -2.7181  2712.7620 H        827 DA      0.0000
   1711 H5''      -5.1275    -2.4203  2712.4506 H        827 DA      0.0000
   1712 H4'       -7.0845    -0.5323  2712.2138 H        827 DA      0.0000
   1713 H3'       -7.6305    -2.0676  2710.0325 H        827 DA      0.0000
   1714 H2'       -6.3568    -0.3629  2708.2922 H        827 DA      0.0000
   1715 H2''      -5.7387    -1.9530  2708.8185 H        827 DA      0.0000
   1716 H1'       -4.8305     0.7398  2709.5147 H        827 DA      0.0000
   1717 H8        -4.1863    -3.0634  2709.4749 H        827 DA      0.0000
   1718 H2        -0.5168     2.2310  2709.6859 H        827 DA      0.0000
   1719 H61        1.7826    -1.7429  2709.3493 H        827 DA      0.0000
   1720 H62        0.6347    -2.7832  2708.5477 H        827 DA      0.0000
   1721 P         -8.7084     0.7977  2708.8859 P.3      826 DA      0.0000
   1722 OP1       -9.7178     1.8625  2709.4058 O.co2    826 DA      0.0000
   1723 OP2       -9.4190    -0.1306  2707.9522 O.co2    826 DA      0.0000
   1724 O5'       -7.4582     1.6140  2708.3832 O.3      826 DA      0.0000
   1725 C5'       -7.2501     2.9668  2708.8390 C.3      826 DA      0.0000
   1726 C4'       -6.0133     3.4840  2708.1371 C.3      826 DA      0.0000
   1727 O4'       -4.9843     2.5437  2708.0163 O.3      826 DA      0.0000
   1728 C3'       -6.2876     4.0118  2706.7295 C.3      826 DA      0.0000
   1729 O3'       -6.0597     5.4335  2706.6981 O.3      826 DA      0.0000
   1730 C2'       -5.4319     3.1181  2705.8300 C.3      826 DA      0.0000
   1731 C1'       -4.3046     2.7068  2706.7278 C.3      826 DA      0.0000
   1732 N9        -3.6668     1.4290  2706.4282 N.ar     826 DA      0.0000
   1733 C8        -4.2422     0.1903  2706.2334 C.ar     826 DA      0.0000
   1734 N7        -3.3714    -0.7724  2706.0280 N.ar     826 DA      0.0000
   1735 C5        -2.1453    -0.1407  2706.1025 C.ar     826 DA      0.0000
   1736 C6        -0.8247    -0.6251  2705.9690 C.ar     826 DA      0.0000
   1737 N6        -0.5236    -1.8970  2705.7258 N.pl3    826 DA      0.0000
   1738 N1         0.1610     0.3174  2706.1179 N.ar     826 DA      0.0000
   1739 C2        -0.1135     1.6116  2706.3704 C.ar     826 DA      0.0000
   1740 N3        -1.3332     2.1400  2706.5093 N.ar     826 DA      0.0000
   1741 C4        -2.3021     1.2091  2706.3620 C.ar     826 DA      0.0000
   1742 H5'       -8.1111     3.5844  2708.5839 H        826 DA      0.0000
   1743 H5''      -7.0947     2.9748  2709.9178 H        826 DA      0.0000
   1744 H4'       -5.6275     4.3152  2708.7272 H        826 DA      0.0000
   1745 H3'       -7.3360     3.8289  2706.4945 H        826 DA      0.0000
   1746 H2'       -5.9971     2.2503  2705.4901 H        826 DA      0.0000
   1747 H2''      -5.0541     3.6843  2704.9787 H        826 DA      0.0000
   1748 H1'       -3.5585     3.4991  2706.7889 H        826 DA      0.0000
   1749 H8        -5.3096     0.0269  2706.2484 H        826 DA      0.0000
   1750 H2         0.7272     2.2824  2706.4695 H        826 DA      0.0000
   1751 H61        0.3985    -2.1860  2706.0199 H        826 DA      0.0000
   1752 H62       -1.1713    -2.5298  2705.2786 H        826 DA      0.0000
   1753 P         -6.2708     6.2268  2705.3131 P.3      825 DT      0.0000
   1754 OP1       -6.3405     7.7217  2705.3713 O.co2    825 DT      0.0000
   1755 OP2       -7.4999     5.5474  2704.8005 O.co2    825 DT      0.0000
   1756 O5'       -4.8063     5.8545  2704.6100 O.3      825 DT      0.0000
   1757 C5'       -3.7591     5.9501  2705.6223 C.3      825 DT      0.0000
   1758 C4'       -2.4454     6.1593  2704.9394 C.3      825 DT      0.0000
   1759 O4'       -1.7162     4.9823  2704.7589 O.3      825 DT      0.0000
   1760 C3'       -2.5514     6.8293  2703.5781 C.3      825 DT      0.0000
   1761 O3'       -1.4743     7.7357  2703.3108 O.3      825 DT      0.0000
   1762 C2'       -2.5918     5.5826  2702.6848 C.3      825 DT      0.0000
   1763 C1'       -1.5313     4.7125  2703.3248 C.3      825 DT      0.0000
   1764 N1        -1.8032     3.2811  2703.0948 N.am     825 DT      0.0000
   1765 C2        -0.7148     2.4353  2702.9732 C.2      825 DT      0.0000
   1766 O2         0.4373     2.8704  2703.0100 O.2      825 DT      0.0000
   1767 N3        -0.9559     1.0986  2702.8058 N.am     825 DT      0.0000
   1768 C4        -2.2188     0.5961  2702.7573 C.2      825 DT      0.0000
   1769 O4        -2.3488    -0.6507  2702.5718 O.2      825 DT      0.0000
   1770 C5        -3.3239     1.4803  2702.9057 C.2      825 DT      0.0000
   1771 C7        -4.7400     0.9582  2702.8536 C.3      825 DT      0.0000
   1772 C6        -3.0716     2.7820  2703.0786 C.2      825 DT      0.0000
   1773 H5'       -3.9656     6.7910  2706.2844 H        825 DT      0.0000
   1774 H5''      -3.7264     5.0278  2706.2023 H        825 DT      0.0000
   1775 H4'       -1.8505     6.8139  2705.5764 H        825 DT      0.0000
   1776 H3'       -3.5007     7.3600  2703.5061 H        825 DT      0.0000
   1777 H2'       -3.5704     5.1035  2702.7153 H        825 DT      0.0000
   1778 H2''      -2.3176     5.8337  2701.6602 H        825 DT      0.0000
   1779 H1'       -0.5312     4.9890  2702.9908 H        825 DT      0.0000
   1780 H3        -0.1731     0.4668  2702.7156 H        825 DT      0.0000
   1781 H6        -3.9011     3.4611  2703.2100 H        825 DT      0.0000
   1782 H71       -5.1400     1.0911  2701.8484 H        825 DT      0.0000
   1783 H72       -5.3561     1.5080  2703.5651 H        825 DT      0.0000
   1784 H73       -4.7463    -0.1011  2703.1101 H        825 DT      0.0000
   1785 P         -1.4706     8.4099  2701.8209 P.3      824 DT      0.0000
   1786 OP1       -1.7147     9.9129  2701.9689 O.co2    824 DT      0.0000
   1787 OP2       -2.6524     7.7695  2701.1511 O.co2    824 DT      0.0000
   1788 O5'       -0.0990     8.0999  2701.1688 O.3      824 DT      0.0000
   1789 C5'        1.1030     7.9305  2701.9202 C.3      824 DT      0.0000
   1790 C4'        1.9950     6.9924  2701.1723 C.3      824 DT      0.0000
   1791 O4'        1.6418     5.6367  2701.1153 O.3      824 DT      0.0000
   1792 C3'        2.3291     7.3435  2699.7062 C.3      824 DT      0.0000
   1793 O3'        3.6753     6.8701  2699.6024 O.3      824 DT      0.0000
   1794 C2'        1.3433     6.4494  2698.9424 C.3      824 DT      0.0000
   1795 C1'        1.6080     5.1753  2699.7182 C.3      824 DT      0.0000
   1796 N1         0.5796     4.1364  2699.6120 N.am     824 DT      0.0000
   1797 C2         1.0553     2.8182  2699.6114 C.2      824 DT      0.0000
   1798 O2         2.2636     2.5778  2699.6544 O.2      824 DT      0.0000
   1799 N3         0.1234     1.8219  2699.5579 N.am     824 DT      0.0000
   1800 C4        -1.2164     2.0669  2699.4982 C.2      824 DT      0.0000
   1801 O4        -2.0012     1.0732  2699.4358 O.2      824 DT      0.0000
   1802 C5        -1.6715     3.4136  2699.5064 C.2      824 DT      0.0000
   1803 C7        -3.1573     3.7003  2699.4450 C.3      824 DT      0.0000
   1804 C6        -0.7564     4.3850  2699.5729 C.2      824 DT      0.0000
   1805 H5'        1.6000     8.8929  2702.0425 H        824 DT      0.0000
   1806 H5''       0.8682     7.5119  2702.8988 H        824 DT      0.0000
   1807 H4'        2.9487     7.0196  2701.6995 H        824 DT      0.0000
   1808 H3'        2.2218     8.4039  2699.4775 H        824 DT      0.0000
   1809 H2'        1.5983     6.3550  2697.8869 H        824 DT      0.0000
   1810 H2''       0.3157     6.7882  2699.0741 H        824 DT      0.0000
   1811 H1'        2.5790     4.7660  2699.4392 H        824 DT      0.0000
   1812 H3         0.4399     0.8628  2699.5628 H        824 DT      0.0000
   1813 H6        -1.0924     5.4111  2699.5966 H        824 DT      0.0000
   1814 H71       -3.7075     2.7607  2699.3962 H        824 DT      0.0000
   1815 H72       -3.3759     4.2955  2698.5584 H        824 DT      0.0000
   1816 H73       -3.4581     4.2516  2700.3360 H        824 DT      0.0000
   1817 P          4.6801     7.1649  2698.4562 P.3      823 DC      0.0000
   1818 OP1        6.0120     7.6070  2699.0654 O.co2    823 DC      0.0000
   1819 OP2        4.0855     8.2939  2697.6744 O.co2    823 DC      0.0000
   1820 O5'        4.7473     5.7147  2697.7168 O.3      823 DC      0.0000
   1821 C5'        5.4989     4.6864  2698.4413 C.3      823 DC      0.0000
   1822 C4'        6.1541     3.8279  2697.3908 C.3      823 DC      0.0000
   1823 O4'        5.4343     2.6422  2697.1455 O.3      823 DC      0.0000
   1824 C3'        6.3392     4.4940  2696.0264 C.3      823 DC      0.0000
   1825 O3'        7.5106     4.0847  2695.3171 O.3      823 DC      0.0000
   1826 C2'        5.0214     4.1085  2695.3403 C.3      823 DC      0.0000
   1827 C1'        4.7641     2.7056  2695.8868 C.3      823 DC      0.0000
   1828 N1         3.2982     2.5235  2696.0046 N.am     823 DC      0.0000
   1829 C2         2.8219     1.2133  2696.0219 C.2      823 DC      0.0000
   1830 O2         3.5966     0.2493  2695.9532 O.2      823 DC      0.0000
   1831 N3         1.4681     1.0404  2696.1251 N.2      823 DC      0.0000
   1832 C4         0.6090     2.0906  2696.1959 C.2      823 DC      0.0000
   1833 N4        -0.7036     1.8706  2696.2978 N.pl3    823 DC      0.0000
   1834 C5         1.1214     3.4177  2696.1707 C.2      823 DC      0.0000
   1835 C6         2.4515     3.5867  2696.0771 C.2      823 DC      0.0000
   1836 H5'        6.2542     5.1480  2699.0773 H        823 DC      0.0000
   1837 H5''       4.8201     4.0841  2699.0452 H        823 DC      0.0000
   1838 H4'        7.1406     3.5471  2697.7596 H        823 DC      0.0000
   1839 H3'        6.3658     5.5753  2696.1606 H        823 DC      0.0000
   1840 H2'        5.1310     4.0950  2694.2559 H        823 DC      0.0000
   1841 H2''       4.2220     4.7878  2695.6362 H        823 DC      0.0000
   1842 H1'        5.1778     1.9604  2695.2075 H        823 DC      0.0000
   1843 H5         0.4580     4.2682  2696.2255 H        823 DC      0.0000
   1844 H6         2.8571     4.5875  2696.0590 H        823 DC      0.0000
   1845 H41       -1.0571     0.9247  2696.3185 H        823 DC      0.0000
   1846 H42       -1.3435     2.6501  2696.3542 H        823 DC      0.0000
   1847 P          7.6300     3.8837  2693.6851 P.3      822 DA      0.0000
   1848 OP1        9.0865     4.0159  2693.2956 O.co2    822 DA      0.0000
   1849 OP2        6.7339     4.9262  2693.1150 O.co2    822 DA      0.0000
   1850 O5'        7.2078     2.3531  2693.5196 O.3      822 DA      0.0000
   1851 C5'        8.1593     1.3188  2693.9850 C.3      822 DA      0.0000
   1852 C4'        7.7852     0.1363  2693.1077 C.3      822 DA      0.0000
   1853 O4'        6.4328    -0.2562  2693.3750 O.3      822 DA      0.0000
   1854 C3'        7.8048     0.4605  2691.6033 C.3      822 DA      0.0000
   1855 O3'        7.8260    -0.7183  2690.8143 O.3      822 DA      0.0000
   1856 C2'        6.3944     1.0490  2691.4158 C.3      822 DA      0.0000
   1857 C1'        5.6707    -0.0996  2692.1705 C.3      822 DA      0.0000
   1858 N9         4.2961     0.3682  2692.3159 N.ar     822 DA      0.0000
   1859 C8         3.8809     1.6791  2692.3888 C.ar     822 DA      0.0000
   1860 N7         2.5828     1.8074  2692.5034 N.ar     822 DA      0.0000
   1861 C5         2.1187     0.4798  2692.4970 C.ar     822 DA      0.0000
   1862 C6         0.8019    -0.0476  2692.5970 C.ar     822 DA      0.0000
   1863 N6        -0.2937     0.7074  2692.7198 N.pl3    822 DA      0.0000
   1864 N1         0.7362    -1.4079  2692.5618 N.ar     822 DA      0.0000
   1865 C2         1.8478    -2.1745  2692.4429 C.ar     822 DA      0.0000
   1866 N3         3.1105    -1.7472  2692.3515 N.ar     822 DA      0.0000
   1867 C4         3.1628    -0.4040  2692.3790 C.ar     822 DA      0.0000
   1868 H5'        9.1918     1.6256  2693.8182 H        822 DA      0.0000
   1869 H5''       7.9916     1.0865  2695.0366 H        822 DA      0.0000
   1870 H4'        8.4562    -0.6982  2693.3117 H        822 DA      0.0000
   1871 H3'        8.5938     1.1626  2691.3337 H        822 DA      0.0000
   1872 H2'        6.2704     2.0189  2691.8975 H        822 DA      0.0000
   1873 H2''       6.1087     1.0824  2690.3645 H        822 DA      0.0000
   1874 H1'        5.6989    -1.0167  2691.5821 H        822 DA      0.0000
   1875 H8         4.5593     2.5188  2692.3547 H        822 DA      0.0000
   1876 H2         1.6969    -3.2436  2692.4197 H        822 DA      0.0000
   1877 H61       -0.2132     1.7138  2692.7446 H        822 DA      0.0000
   1878 H62       -1.2022     0.2715  2692.7879 H        822 DA      0.0000
   1879 P          8.9133    -0.9121  2689.6733 P.3      821 DC      0.0000
   1880 OP1       10.1076    -1.4360  2690.4536 O.co2    821 DC      0.0000
   1881 OP2        9.2001     0.3305  2688.9477 O.co2    821 DC      0.0000
   1882 O5'        8.1400    -1.9864  2688.6975 O.3      821 DC      0.0000
   1883 C5'        7.6227    -3.1994  2689.3665 C.3      821 DC      0.0000
   1884 C4'        6.3157    -3.5798  2688.7225 C.3      821 DC      0.0000
   1885 O4'        5.1765    -3.0146  2689.3596 O.3      821 DC      0.0000
   1886 C3'        6.2324    -3.1610  2687.2446 C.3      821 DC      0.0000
   1887 O3'        5.4783    -4.0530  2686.4333 O.3      821 DC      0.0000
   1888 C2'        5.4368    -1.8249  2687.4103 C.3      821 DC      0.0000
   1889 C1'        4.3347    -2.5016  2688.3059 C.3      821 DC      0.0000
   1890 N1         3.3188    -1.5098  2688.5438 N.am     821 DC      0.0000
   1891 C2         2.0397    -1.9375  2688.8609 C.2      821 DC      0.0000
   1892 O2         1.6029    -3.0854  2689.0014 O.2      821 DC      0.0000
   1893 N3         1.0764    -0.9876  2689.0591 N.2      821 DC      0.0000
   1894 C4         1.3422     0.3491  2688.9431 C.2      821 DC      0.0000
   1895 N4         0.3668     1.2454  2689.1592 N.pl3    821 DC      0.0000
   1896 C5         2.6593     0.7726  2688.6135 C.2      821 DC      0.0000
   1897 C6         3.5842    -0.1752  2688.4218 C.2      821 DC      0.0000
   1898 H5'        8.3383    -4.0142  2689.2550 H        821 DC      0.0000
   1899 H5''       7.4634    -2.9942  2690.4251 H        821 DC      0.0000
   1900 H4'        6.2221    -4.6648  2688.7692 H        821 DC      0.0000
   1901 H3'        7.2229    -2.9841  2686.8256 H        821 DC      0.0000
   1902 H2'        5.9985    -1.0469  2687.9274 H        821 DC      0.0000
   1903 H2''       5.0311    -1.4723  2686.4621 H        821 DC      0.0000
   1904 H1'        3.8962    -3.3376  2687.7610 H        821 DC      0.0000
   1905 H5         2.9039     1.8205  2688.5214 H        821 DC      0.0000
   1906 H6         4.5865     0.1288  2688.1585 H        821 DC      0.0000
   1907 H41       -0.5628     0.9321  2689.3997 H        821 DC      0.0000
   1908 H42        0.5623     2.2332  2689.0813 H        821 DC      0.0000
   1909 P        -10.0037     0.5542  2723.0325 P.3      831 DG      0.0000
   1910 OP1      -11.2680     1.3309  2723.0310 O.co2    831 DG      0.0000
   1911 OP2       -9.0911     1.1953  2724.0882 O.co2    831 DG      0.0000
   1912 O5'      -10.1287    -1.0219  2723.2109 O.3      831 DG      0.0000
   1913 C5'      -10.0409    -2.0591  2722.2109 C.3      831 DG      0.0000
   1914 C4'       -9.0758    -3.1143  2722.7097 C.3      831 DG      0.0000
   1915 O4'       -7.7519    -2.8633  2722.2906 O.3      831 DG      0.0000
   1916 C3'       -9.0158    -3.3712  2724.2019 C.3      831 DG      0.0000
   1917 O3'       -9.2262    -4.7747  2724.5139 O.3      831 DG      0.0000
   1918 C2'       -7.6512    -2.8605  2724.6238 C.3      831 DG      0.0000
   1919 C1'       -6.8226    -2.9853  2723.3681 C.3      831 DG      0.0000
   1920 N9        -5.7880    -1.9356  2723.3391 N.ar     831 DG      0.0000
   1921 C8        -5.9090    -0.5852  2723.5680 C.ar     831 DG      0.0000
   1922 N7        -4.7781     0.0777  2723.4783 N.ar     831 DG      0.0000
   1923 C5        -3.8430    -0.9042  2723.1612 C.ar     831 DG      0.0000
   1924 C6        -2.4459    -0.8392  2722.9353 C.2      831 DG      0.0000
   1925 O6        -1.7155     0.1520  2722.9566 O.2      831 DG      0.0000
   1926 N1        -1.8452    -2.0356  2722.6538 N.am     831 DG      0.0000
   1927 C2        -2.4938    -3.1544  2722.5932 C.2      831 DG      0.0000
   1928 N2        -1.7041    -4.1122  2722.2964 N.pl3    831 DG      0.0000
   1929 N3        -3.8666    -3.3206  2722.8019 N.2      831 DG      0.0000
   1930 C4        -4.4485    -2.1438  2723.0745 C.ar     831 DG      0.0000
   1931 H5'      -11.0237    -2.5031  2722.0522 H        831 DG      0.0000
   1932 H5''      -9.6729    -1.6374  2721.2755 H        831 DG      0.0000
   1933 H4'       -9.3757    -4.0535  2722.2450 H        831 DG      0.0000
   1934 H3'       -9.7855    -2.7782  2724.6959 H        831 DG      0.0000
   1935 H2'       -7.7083    -1.8223  2724.9508 H        831 DG      0.0000
   1936 H2''      -7.2389    -3.4863  2725.4153 H        831 DG      0.0000
   1937 H1'       -6.3503    -3.9671  2723.3362 H        831 DG      0.0000
   1938 H8        -6.8509    -0.1111  2723.8010 H        831 DG      0.0000
   1939 H1        -0.8494    -2.0465  2722.4854 H        831 DG      0.0000
   1940 H21       -0.7212    -3.9301  2722.1520 H        831 DG      0.0000
   1941 H22       -2.0621    -5.0523  2722.2059 H        831 DG      0.0000
   1942 P         -8.9400    -5.3829  2725.9424 P.3      832 DT      0.0000
   1943 OP1       -9.9410    -6.3862  2726.4541 O.co2    832 DT      0.0000
   1944 OP2       -9.1082    -4.1590  2726.8611 O.co2    832 DT      0.0000
   1945 O5'       -7.4592    -5.8403  2725.9710 O.3      832 DT      0.0000
   1946 C5'       -7.0538    -7.2293  2725.8270 C.3      832 DT      0.0000
   1947 C4'       -5.5409    -7.1933  2725.8845 C.3      832 DT      0.0000
   1948 O4'       -5.0275    -5.9085  2725.6094 O.3      832 DT      0.0000
   1949 C3'       -4.9102    -7.5837  2727.1973 C.3      832 DT      0.0000
   1950 O3'       -4.1606    -8.7930  2727.0090 O.3      832 DT      0.0000
   1951 C2'       -4.0046    -6.4166  2727.5895 C.3      832 DT      0.0000
   1952 C1'       -3.7150    -5.8199  2726.2367 C.3      832 DT      0.0000
   1953 N1        -3.3720    -4.4009  2726.3334 N.am     832 DT      0.0000
   1954 C2        -2.0630    -4.0540  2726.1354 C.2      832 DT      0.0000
   1955 O2        -1.1890    -4.8844  2725.8973 O.2      832 DT      0.0000
   1956 N3        -1.7515    -2.7234  2726.2165 N.am     832 DT      0.0000
   1957 C4        -2.6728    -1.7672  2726.4724 C.2      832 DT      0.0000
   1958 O4        -2.2365    -0.5873  2726.5177 O.2      832 DT      0.0000
   1959 C5        -4.0384    -2.1490  2726.6721 C.2      832 DT      0.0000
   1960 C7        -5.0879    -1.1229  2726.9520 C.3      832 DT      0.0000
   1961 C6        -4.3339    -3.4526  2726.5906 C.2      832 DT      0.0000
   1962 H5'       -7.4554    -7.8336  2726.6405 H        832 DT      0.0000
   1963 H5''      -7.3858    -7.6217  2724.8658 H        832 DT      0.0000
   1964 H4'       -5.1634    -7.8723  2725.1200 H        832 DT      0.0000
   1965 H3'       -5.6801    -7.7329  2727.9544 H        832 DT      0.0000
   1966 H2'       -4.5205    -5.7087  2728.2383 H        832 DT      0.0000
   1967 H2''      -3.0891    -6.7767  2728.0587 H        832 DT      0.0000
   1968 H1'       -2.9610    -6.3876  2725.6914 H        832 DT      0.0000
   1969 H3        -0.7909    -2.4435  2726.0790 H        832 DT      0.0000
   1970 H6        -5.3572    -3.7682  2726.7310 H        832 DT      0.0000
   1971 H71       -5.6652    -0.9366  2726.0465 H        832 DT      0.0000
   1972 H72       -4.6130    -0.1971  2727.2768 H        832 DT      0.0000
   1973 H73       -5.7508    -1.4862  2727.7373 H        832 DT      0.0000
   1974 P         -4.2356    -9.7941  2728.2890 P.3      833 DG      0.0000
   1975 OP1       -4.2580   -11.1391  2727.5739 O.co2    833 DG      0.0000
   1976 OP2       -5.4426    -9.5050  2729.0425 O.co2    833 DG      0.0000
   1977 O5'       -2.7765    -9.3891  2728.8985 O.3      833 DG      0.0000
   1978 C5'       -1.7798    -9.3671  2727.8079 C.3      833 DG      0.0000
   1979 C4'       -0.5520    -8.6793  2728.3280 C.3      833 DG      0.0000
   1980 O4'       -0.4882    -7.2899  2728.1474 O.3      833 DG      0.0000
   1981 C3'       -0.3198    -8.9427  2729.8360 C.3      833 DG      0.0000
   1982 O3'        1.0209    -9.4665  2729.9949 O.3      833 DG      0.0000
   1983 C2'       -0.6021    -7.6063  2730.4886 C.3      833 DG      0.0000
   1984 C1'       -0.1517    -6.6313  2729.4070 C.3      833 DG      0.0000
   1985 N9        -0.7817    -5.3172  2729.5766 N.ar     833 DG      0.0000
   1986 C8        -2.0748    -5.0253  2729.9128 C.ar     833 DG      0.0000
   1987 N7        -2.3423    -3.7408  2729.9985 N.ar     833 DG      0.0000
   1988 C5        -1.1264    -3.1464  2729.6685 C.ar     833 DG      0.0000
   1989 C6        -0.7555    -1.7745  2729.5741 C.2      833 DG      0.0000
   1990 O6        -1.4633    -0.7746  2729.7665 O.2      833 DG      0.0000
   1991 N1         0.5624    -1.5635  2729.2391 N.am     833 DG      0.0000
   1992 C2         1.4230    -2.5946  2729.0153 C.2      833 DG      0.0000
   1993 N2         2.6659    -2.2021  2728.7065 N.pl3    833 DG      0.0000
   1994 N3         1.1243    -3.8898  2729.0864 N.2      833 DG      0.0000
   1995 C4        -0.1627    -4.0982  2729.4129 C.ar     833 DG      0.0000
   1996 H5'       -1.5356   -10.3860  2727.5074 H        833 DG      0.0000
   1997 H5''      -2.1778    -8.8165  2726.9555 H        833 DG      0.0000
   1998 H4'        0.2989    -9.1068  2727.7974 H        833 DG      0.0000
   1999 H3'       -1.0411    -9.6790  2730.1908 H        833 DG      0.0000
   2000 H2'       -1.6626    -7.4895  2730.7115 H        833 DG      0.0000
   2001 H2''      -0.0030    -7.4841  2731.3910 H        833 DG      0.0000
   2002 H1'        0.9304    -6.5141  2729.4660 H        833 DG      0.0000
   2003 H8        -2.8170    -5.7888  2730.0934 H        833 DG      0.0000
   2004 H1         0.9014    -0.6156  2729.1568 H        833 DG      0.0000
   2005 H21        2.8869    -1.2179  2728.6563 H        833 DG      0.0000
   2006 H22        3.3821    -2.8905  2728.5238 H        833 DG      0.0000
   2007 P          1.5507    -9.9517  2731.3833 P.3      834 DA      0.0000
   2008 OP1        1.3007   -11.3815  2731.7386 O.co2    834 DA      0.0000
   2009 OP2        0.6065    -9.0686  2732.2790 O.co2    834 DA      0.0000
   2010 O5'        2.9932    -9.3419  2731.6324 O.3      834 DA      0.0000
   2011 C5'        3.8882    -8.8950  2730.6033 C.3      834 DA      0.0000
   2012 C4'        4.4024    -7.5454  2731.0777 C.3      834 DA      0.0000
   2013 O4'        3.3842    -6.5720  2730.9873 O.3      834 DA      0.0000
   2014 C3'        4.9428    -7.4915  2732.5067 C.3      834 DA      0.0000
   2015 O3'        6.2125    -6.8088  2732.5590 O.3      834 DA      0.0000
   2016 C2'        3.8272    -6.7388  2733.2422 C.3      834 DA      0.0000
   2017 C1'        3.4660    -5.7278  2732.1646 C.3      834 DA      0.0000
   2018 N9         2.1845    -5.0527  2732.3930 N.ar     834 DA      0.0000
   2019 C8         0.9418    -5.5774  2732.6087 C.ar     834 DA      0.0000
   2020 N7         0.0027    -4.6727  2732.7737 N.ar     834 DA      0.0000
   2021 C5         0.6740    -3.4672  2732.6335 C.ar     834 DA      0.0000
   2022 C6         0.2186    -2.1315  2732.6815 C.ar     834 DA      0.0000
   2023 N6        -1.0487    -1.7734  2732.9012 N.pl3    834 DA      0.0000
   2024 N1         1.1812    -1.1807  2732.4917 N.ar     834 DA      0.0000
   2025 C2         2.4723    -1.5220  2732.2739 C.ar     834 DA      0.0000
   2026 N3         2.9727    -2.7556  2732.2157 N.ar     834 DA      0.0000
   2027 C4         2.0114    -3.6782  2732.4025 C.ar     834 DA      0.0000
   2028 H5'        3.3590    -8.7904  2729.6562 H        834 DA      0.0000
   2029 H5''       4.7163    -9.5956  2730.4956 H        834 DA      0.0000
   2030 H4'        5.2080    -7.2444  2730.4079 H        834 DA      0.0000
   2031 H3'        5.0424    -8.5000  2732.9081 H        834 DA      0.0000
   2032 H2'        2.9886    -7.3904  2733.4877 H        834 DA      0.0000
   2033 H2''       4.2112    -6.2418  2734.1331 H        834 DA      0.0000
   2034 H1'        4.2647    -4.9949  2732.0501 H        834 DA      0.0000
   2035 H8         0.7485    -6.6395  2732.6408 H        834 DA      0.0000
   2036 H2         3.1701    -0.7098  2732.1326 H        834 DA      0.0000
   2037 H61       -1.8478    -2.3835  2732.8038 H        834 DA      0.0000
   2038 H62       -1.3120    -0.8135  2732.7297 H        834 DA      0.0000
   2039 P         -1.0677     8.4705  2735.0059 P.3      834 DT      0.0000
   2040 OP1       -1.2398     9.9834  2735.1539 O.co2    834 DT      0.0000
   2041 OP2       -2.2787     7.8872  2734.3361 O.co2    834 DT      0.0000
   2042 O5'        0.2876     8.0954  2734.3539 O.3      834 DT      0.0000
   2043 C5'        1.4802     7.8689  2735.1053 C.3      834 DT      0.0000
   2044 C4'        2.3264     6.8892  2734.3573 C.3      834 DT      0.0000
   2045 O4'        1.9088     5.5520  2734.3003 O.3      834 DT      0.0000
   2046 C3'        2.6768     7.2241  2732.8913 C.3      834 DT      0.0000
   2047 O3'        3.9988     6.6870  2732.7875 O.3      834 DT      0.0000
   2048 C2'        1.6495     6.3780  2732.1275 C.3      834 DT      0.0000
   2049 C1'        1.8531     5.0927  2732.9032 C.3      834 DT      0.0000
   2050 N1         0.7763     4.1040  2732.7971 N.am     834 DT      0.0000
   2051 C2         1.1885     2.7647  2732.7964 C.2      834 DT      0.0000
   2052 O2         2.3840     2.4669  2732.8395 O.2      834 DT      0.0000
   2053 N3         0.2101     1.8139  2732.7430 N.am     834 DT      0.0000
   2054 C4        -1.1164     2.1226  2732.6832 C.2      834 DT      0.0000
   2055 O4        -1.9477     1.1674  2732.6208 O.2      834 DT      0.0000
   2056 C5        -1.5068     3.4894  2732.6915 C.2      834 DT      0.0000
   2057 C7        -2.9772     3.8467  2732.6301 C.3      834 DT      0.0000
   2058 C6        -0.5464     4.4161  2732.7580 C.2      834 DT      0.0000
   2059 H5'        2.0225     8.8065  2735.2275 H        834 DT      0.0000
   2060 H5''       1.2256     7.4619  2736.0839 H        834 DT      0.0000
   2061 H4'        3.2802     6.8709  2734.8845 H        834 DT      0.0000
   2062 H3'        2.6202     8.2883  2732.6625 H        834 DT      0.0000
   2063 H2'        1.8996     6.2715  2731.0719 H        834 DT      0.0000
   2064 H2''       0.6393     6.7655  2732.2591 H        834 DT      0.0000
   2065 H1'        2.8035     4.6375  2732.6242 H        834 DT      0.0000
   2066 H3         0.4806     0.8408  2732.7479 H        834 DT      0.0000
   2067 H6        -0.8330     5.4571  2732.7817 H        834 DT      0.0000
   2068 H71       -3.5716     2.9344  2732.5812 H        834 DT      0.0000
   2069 H72       -3.1671     4.4517  2731.7435 H        834 DT      0.0000
   2070 H73       -3.2513     4.4117  2733.5210 H        834 DT      0.0000
   2071 P          5.0166     6.9334  2731.6413 P.3      833 DC      0.0000
   2072 OP1        6.3680     7.3115  2732.2504 O.co2    833 DC      0.0000
   2073 OP2        4.4766     8.0896  2730.8594 O.co2    833 DC      0.0000
   2074 O5'        5.0145     5.4817  2730.9019 O.3      833 DC      0.0000
   2075 C5'        5.7162     4.4187  2731.6264 C.3      833 DC      0.0000
   2076 C4'        6.3298     3.5299  2730.5758 C.3      833 DC      0.0000
   2077 O4'        5.5542     2.3799  2730.3306 O.3      833 DC      0.0000
   2078 C3'        6.5464     4.1865  2729.2114 C.3      833 DC      0.0000
   2079 O3'        7.6970     3.7218  2728.5021 O.3      833 DC      0.0000
   2080 C2'        5.2117     3.8643  2728.5253 C.3      833 DC      0.0000
   2081 C1'        4.8877     2.4752  2729.0719 C.3      833 DC      0.0000
   2082 N1         3.4148     2.3632  2729.1897 N.am     833 DC      0.0000
   2083 C2         2.8766     1.0773  2729.2069 C.2      833 DC      0.0000
   2084 O2         3.6044     0.0774  2729.1383 O.2      833 DC      0.0000
   2085 N3         1.5160     0.9691  2729.3102 N.2      833 DC      0.0000
   2086 C4         0.7080     2.0592  2729.3809 C.2      833 DC      0.0000
   2087 N4        -0.6136     1.9021  2729.4828 N.pl3    833 DC      0.0000
   2088 C5         1.2832     3.3603  2729.3558 C.2      833 DC      0.0000
   2089 C6         2.6198     3.4657  2729.2622 C.2      833 DC      0.0000
   2090 H5'        6.4927     4.8437  2732.2623 H        833 DC      0.0000
   2091 H5''       5.0095     3.8494  2732.2303 H        833 DC      0.0000
   2092 H4'        7.3017     3.2023  2730.9446 H        833 DC      0.0000
   2093 H3'        6.6246     5.2653  2729.3456 H        833 DC      0.0000
   2094 H2'        5.3206     3.8455  2727.4409 H        833 DC      0.0000
   2095 H2''       4.4456     4.5810  2728.8213 H        833 DC      0.0000
   2096 H1'        5.2654     1.7111  2728.3925 H        833 DC      0.0000
   2097 H5         0.6611     4.2415  2729.4105 H        833 DC      0.0000
   2098 H6         3.0728     4.4460  2729.2441 H        833 DC      0.0000
   2099 H41       -1.0117     0.9741  2729.5035 H        833 DC      0.0000
   2100 H42       -1.2155     2.7112  2729.5392 H        833 DC      0.0000
   2101 P          7.8066     3.5152  2726.8701 P.3      832 DA      0.0000
   2102 OP1        9.2678     3.5778  2726.4807 O.co2    832 DA      0.0000
   2103 OP2        6.9613     4.5993  2726.3001 O.co2    832 DA      0.0000
   2104 O5'        7.3118     2.0065  2726.7046 O.3      832 DA      0.0000
   2105 C5'        8.2130     0.9280  2727.1700 C.3      832 DA      0.0000
   2106 C4'        7.7828    -0.2353  2726.2928 C.3      832 DA      0.0000
   2107 O4'        6.4133    -0.5628  2726.5601 O.3      832 DA      0.0000
   2108 C3'        7.8179     0.0877  2724.7883 C.3      832 DA      0.0000
   2109 O3'        7.7828    -1.0908  2723.9993 O.3      832 DA      0.0000
   2110 C2'        6.4371     0.7428  2724.6009 C.3      832 DA      0.0000
   2111 C1'        5.6595    -0.3700  2725.3555 C.3      832 DA      0.0000
   2112 N9         4.3088     0.1628  2725.5010 N.ar     832 DA      0.0000
   2113 C8         3.9566     1.4920  2725.5738 C.ar     832 DA      0.0000
   2114 N7         2.6661     1.6821  2725.6884 N.ar     832 DA      0.0000
   2115 C5         2.1392     0.3782  2725.6821 C.ar     832 DA      0.0000
   2116 C6         0.7987    -0.0858  2725.7820 C.ar     832 DA      0.0000
   2117 N6        -0.2596     0.7206  2725.9048 N.pl3    832 DA      0.0000
   2118 N1         0.6682    -1.4414  2725.7469 N.ar     832 DA      0.0000
   2119 C2         1.7420    -2.2602  2725.6280 C.ar     832 DA      0.0000
   2120 N3         3.0236    -1.8936  2725.5365 N.ar     832 DA      0.0000
   2121 C4         3.1399    -0.5544  2725.5640 C.ar     832 DA      0.0000
   2122 H5'        9.2589     1.1852  2727.0033 H        832 DA      0.0000
   2123 H5''       8.0343     0.7040  2728.2217 H        832 DA      0.0000
   2124 H4'        8.4132    -1.1008  2726.4967 H        832 DA      0.0000
   2125 H3'        8.6395     0.7512  2724.5187 H        832 DA      0.0000
   2126 H2'        6.3596     1.7175  2725.0825 H        832 DA      0.0000
   2127 H2''       6.1534     0.7898  2723.5495 H        832 DA      0.0000
   2128 H1'        5.6439    -1.2874  2724.7671 H        832 DA      0.0000
   2129 H8         4.6742     2.2984  2725.5398 H        832 DA      0.0000
   2130 H2         1.5402    -3.3209  2725.6048 H        832 DA      0.0000
   2131 H61       -0.1312     1.7221  2725.9296 H        832 DA      0.0000
   2132 H62       -1.1879     0.3286  2725.9730 H        832 DA      0.0000
   2133 P          8.8597    -1.3363  2722.8584 P.3      831 DC      0.0000
   2134 OP1       10.0276    -1.9166  2723.6387 O.co2    831 DC      0.0000
   2135 OP2        9.2054    -0.1088  2722.1328 O.co2    831 DC      0.0000
   2136 O5'        8.0360    -2.3725  2721.8825 O.3      831 DC      0.0000
   2137 C5'        7.4614    -3.5595  2722.5515 C.3      831 DC      0.0000
   2138 C4'        6.1377    -3.8771  2721.9075 C.3      831 DC      0.0000
   2139 O4'        5.0268    -3.2581  2722.5446 O.3      831 DC      0.0000
   2140 C3'        6.0745    -3.4548  2720.4297 C.3      831 DC      0.0000
   2141 O3'        5.2787    -4.3098  2719.6184 O.3      831 DC      0.0000
   2142 C2'        5.3436    -2.0822  2720.5953 C.3      831 DC      0.0000
   2143 C1'        4.2104    -2.7055  2721.4909 C.3      831 DC      0.0000
   2144 N1         3.2429    -1.6664  2721.7288 N.am     831 DC      0.0000
   2145 C2         1.9449    -2.0326  2722.0460 C.2      831 DC      0.0000
   2146 O2         1.4538    -3.1583  2722.1864 O.2      831 DC      0.0000
   2147 N3         1.0280    -1.0378  2722.2442 N.2      831 DC      0.0000
   2148 C4         1.3573     0.2846  2722.1282 C.2      831 DC      0.0000
   2149 N4         0.4258     1.2265  2722.3443 N.pl3    831 DC      0.0000
   2150 C5         2.6931     0.6449  2721.7985 C.2      831 DC      0.0000
   2151 C6         3.5717    -0.3460  2721.6068 C.2      831 DC      0.0000
   2152 H5'        8.1372    -4.4074  2722.4400 H        831 DC      0.0000
   2153 H5''       7.3121    -3.3468  2723.6101 H        831 DC      0.0000
   2154 H4'        5.9925    -4.9563  2721.9542 H        831 DC      0.0000
   2155 H3'        7.0723    -3.3253  2720.0107 H        831 DC      0.0000
   2156 H2'        5.9417    -1.3319  2721.1124 H        831 DC      0.0000
   2157 H2''       4.9551    -1.7106  2719.6471 H        831 DC      0.0000
   2158 H1'        3.7325    -3.5197  2720.9460 H        831 DC      0.0000
   2159 H5         2.9874     1.6799  2721.7064 H        831 DC      0.0000
   2160 H6         4.5874    -0.0901  2721.3436 H        831 DC      0.0000
   2161 H41       -0.5177     0.9579  2722.5848 H        831 DC      0.0000
   2162 H42        0.6682     2.2039  2722.2663 H        831 DC      0.0000
@<TRIPOS>BOND
     1      9     34 1
     2     42     66 1
     3     74     99 1
     4    107    131 1
     5    139    163 1
     6    171    195 1
     7    203    227 1
     8    235    257 1
     9    265    289 1
    10    327    352 1
    11    360    384 1
    12    392    417 1
    13    425    449 1
    14    457    481 1
    15    489    513 1
    16    521    545 1
    17    553    575 1
    18    583    607 1
    19      1      2 1
    20      1      3 1
    21      1      4 1
    22      4      5 1
    23      5      6 1
    24      6      7 1
    25      6      8 1
    26      7     11 1
    27      8      9 1
    28      8     10 1
    29     10     11 1
    30     11     12 1
    31     12     13 ar
    32     12     22 ar
    33     13     14 ar
    34     14     15 ar
    35     15     16 1
    36     15     22 ar
    37     16     17 2
    38     16     18 am
    39     18     19 1
    40     19     20 2
    41     19     21 2
    42     21     22 1
    43     34     35 1
    44     34     36 1
    45     34     37 1
    46     37     38 1
    47     38     39 1
    48     39     40 1
    49     39     41 1
    50     40     44 1
    51     41     42 1
    52     41     43 1
    53     43     44 1
    54     44     45 1
    55     45     46 am
    56     45     53 1
    57     46     47 2
    58     46     48 am
    59     48     49 am
    60     49     50 2
    61     49     51 1
    62     51     52 1
    63     51     53 2
    64     66     67 1
    65     66     68 1
    66     66     69 1
    67     69     70 1
    68     70     71 1
    69     71     72 1
    70     71     73 1
    71     72     76 1
    72     73     74 1
    73     73     75 1
    74     75     76 1
    75     76     77 1
    76     77     78 ar
    77     77     87 ar
    78     78     79 ar
    79     79     80 ar
    80     80     81 1
    81     80     87 ar
    82     81     82 2
    83     81     83 am
    84     83     84 1
    85     84     85 2
    86     84     86 2
    87     86     87 1
    88     99    100 1
    89     99    101 1
    90     99    102 1
    91    102    103 1
    92    103    104 1
    93    104    105 1
    94    104    106 1
    95    105    109 1
    96    106    107 1
    97    106    108 1
    98    108    109 1
    99    109    110 1
   100    110    111 ar
   101    110    119 ar
   102    111    112 ar
   103    112    113 ar
   104    113    114 ar
   105    113    119 ar
   106    114    115 1
   107    114    116 ar
   108    116    117 ar
   109    117    118 ar
   110    118    119 ar
   111    131    132 1
   112    131    133 1
   113    131    134 1
   114    134    135 1
   115    135    136 1
   116    136    137 1
   117    136    138 1
   118    137    141 1
   119    138    139 1
   120    138    140 1
   121    140    141 1
   122    141    142 1
   123    142    143 ar
   124    142    151 ar
   125    143    144 ar
   126    144    145 ar
   127    145    146 ar
   128    145    151 ar
   129    146    147 1
   130    146    148 ar
   131    148    149 ar
   132    149    150 ar
   133    150    151 ar
   134    163    164 1
   135    163    165 1
   136    163    166 1
   137    166    167 1
   138    167    168 1
   139    168    169 1
   140    168    170 1
   141    169    173 1
   142    170    171 1
   143    170    172 1
   144    172    173 1
   145    173    174 1
   146    174    175 am
   147    174    182 1
   148    175    176 2
   149    175    177 am
   150    177    178 am
   151    178    179 2
   152    178    180 1
   153    180    181 1
   154    180    182 2
   155    195    196 1
   156    195    197 1
   157    195    198 1
   158    198    199 1
   159    199    200 1
   160    200    201 1
   161    200    202 1
   162    201    205 1
   163    202    203 1
   164    202    204 1
   165    204    205 1
   166    205    206 1
   167    206    207 am
   168    206    214 1
   169    207    208 2
   170    207    209 am
   171    209    210 am
   172    210    211 2
   173    210    212 1
   174    212    213 1
   175    212    214 2
   176    227    228 1
   177    227    229 1
   178    227    230 1
   179    230    231 1
   180    231    232 1
   181    232    233 1
   182    232    234 1
   183    233    237 1
   184    234    235 1
   185    234    236 1
   186    236    237 1
   187    237    238 1
   188    238    239 am
   189    238    245 1
   190    239    240 2
   191    239    241 1
   192    241    242 2
   193    242    243 2
   194    242    244 2
   195    244    245 2
   196    257    258 1
   197    257    259 1
   198    257    260 1
   199    260    261 1
   200    261    262 1
   201    262    263 1
   202    262    264 1
   203    263    267 1
   204    264    265 1
   205    264    266 1
   206    266    267 1
   207    267    268 1
   208    268    269 ar
   209    268    277 ar
   210    269    270 ar
   211    270    271 ar
   212    271    272 ar
   213    271    277 ar
   214    272    273 1
   215    272    274 ar
   216    274    275 ar
   217    275    276 ar
   218    276    277 ar
   219    289    290 1
   220    289    291 1
   221    289    292 1
   222    292    293 1
   223    293    294 1
   224    294    295 1
   225    294    296 1
   226    295    299 1
   227    296    297 1
   228    296    298 1
   229    298    299 1
   230    299    300 1
   231    300    301 am
   232    300    307 1
   233    301    302 2
   234    301    303 1
   235    303    304 2
   236    304    305 2
   237    304    306 2
   238    306    307 2
   239    319    320 1
   240    319    321 1
   241    319    322 1
   242    322    323 1
   243    323    324 1
   244    324    325 1
   245    324    326 1
   246    325    329 1
   247    326    327 1
   248    326    328 1
   249    328    329 1
   250    329    330 1
   251    330    331 ar
   252    330    340 ar
   253    331    332 ar
   254    332    333 ar
   255    333    334 1
   256    333    340 ar
   257    334    335 2
   258    334    336 am
   259    336    337 1
   260    337    338 2
   261    337    339 2
   262    339    340 1
   263    352    353 1
   264    352    354 1
   265    352    355 1
   266    355    356 1
   267    356    357 1
   268    357    358 1
   269    357    359 1
   270    358    362 1
   271    359    360 1
   272    359    361 1
   273    361    362 1
   274    362    363 1
   275    363    364 am
   276    363    371 1
   277    364    365 2
   278    364    366 am
   279    366    367 am
   280    367    368 2
   281    367    369 1
   282    369    370 1
   283    369    371 2
   284    384    385 1
   285    384    386 1
   286    384    387 1
   287    387    388 1
   288    388    389 1
   289    389    390 1
   290    389    391 1
   291    390    394 1
   292    391    392 1
   293    391    393 1
   294    393    394 1
   295    394    395 1
   296    395    396 ar
   297    395    405 ar
   298    396    397 ar
   299    397    398 ar
   300    398    399 1
   301    398    405 ar
   302    399    400 2
   303    399    401 am
   304    401    402 1
   305    402    403 2
   306    402    404 2
   307    404    405 1
   308    417    418 1
   309    417    419 1
   310    417    420 1
   311    420    421 1
   312    421    422 1
   313    422    423 1
   314    422    424 1
   315    423    427 1
   316    424    425 1
   317    424    426 1
   318    426    427 1
   319    427    428 1
   320    428    429 ar
   321    428    437 ar
   322    429    430 ar
   323    430    431 ar
   324    431    432 ar
   325    431    437 ar
   326    432    433 1
   327    432    434 ar
   328    434    435 ar
   329    435    436 ar
   330    436    437 ar
   331    449    450 1
   332    449    451 1
   333    449    452 1
   334    452    453 1
   335    453    454 1
   336    454    455 1
   337    454    456 1
   338    455    459 1
   339    456    457 1
   340    456    458 1
   341    458    459 1
   342    459    460 1
   343    460    461 ar
   344    460    469 ar
   345    461    462 ar
   346    462    463 ar
   347    463    464 ar
   348    463    469 ar
   349    464    465 1
   350    464    466 ar
   351    466    467 ar
   352    467    468 ar
   353    468    469 ar
   354    481    482 1
   355    481    483 1
   356    481    484 1
   357    484    485 1
   358    485    486 1
   359    486    487 1
   360    486    488 1
   361    487    491 1
   362    488    489 1
   363    488    490 1
   364    490    491 1
   365    491    492 1
   366    492    493 am
   367    492    500 1
   368    493    494 2
   369    493    495 am
   370    495    496 am
   371    496    497 2
   372    496    498 1
   373    498    499 1
   374    498    500 2
   375    513    514 1
   376    513    515 1
   377    513    516 1
   378    516    517 1
   379    517    518 1
   380    518    519 1
   381    518    520 1
   382    519    523 1
   383    520    521 1
   384    520    522 1
   385    522    523 1
   386    523    524 1
   387    524    525 am
   388    524    532 1
   389    525    526 2
   390    525    527 am
   391    527    528 am
   392    528    529 2
   393    528    530 1
   394    530    531 1
   395    530    532 2
   396    545    546 1
   397    545    547 1
   398    545    548 1
   399    548    549 1
   400    549    550 1
   401    550    551 1
   402    550    552 1
   403    551    555 1
   404    552    553 1
   405    552    554 1
   406    554    555 1
   407    555    556 1
   408    556    557 am
   409    556    563 1
   410    557    558 2
   411    557    559 1
   412    559    560 2
   413    560    561 2
   414    560    562 2
   415    562    563 2
   416    575    576 1
   417    575    577 1
   418    575    578 1
   419    578    579 1
   420    579    580 1
   421    580    581 1
   422    580    582 1
   423    581    585 1
   424    582    583 1
   425    582    584 1
   426    584    585 1
   427    585    586 1
   428    586    587 ar
   429    586    595 ar
   430    587    588 ar
   431    588    589 ar
   432    589    590 ar
   433    589    595 ar
   434    590    591 1
   435    590    592 ar
   436    592    593 ar
   437    593    594 ar
   438    594    595 ar
   439    607    608 1
   440    607    609 1
   441    607    610 1
   442    610    611 1
   443    611    612 1
   444    612    613 1
   445    612    614 1
   446    613    617 1
   447    614    615 1
   448    614    616 1
   449    616    617 1
   450    617    618 1
   451    618    619 am
   452    618    625 1
   453    619    620 2
   454    619    621 1
   455    621    622 2
   456    622    623 2
   457    622    624 2
   458    624    625 2
   459     23      5 1
   460     24      5 1
   461     25      6 1
   462     26      8 1
   463     27     10 1
   464     28     10 1
   465     29     11 1
   466     30     13 1
   467     31     18 1
   468     54     38 1
   469     55     38 1
   470     56     39 1
   471     57     41 1
   472     58     43 1
   473     59     43 1
   474     60     44 1
   475     61     48 1
   476     62     53 1
   477     88     70 1
   478     89     70 1
   479     90     71 1
   480     91     73 1
   481     92     75 1
   482     93     75 1
   483     94     76 1
   484     95     78 1
   485     96     83 1
   486    120    103 1
   487    121    103 1
   488    122    104 1
   489    123    106 1
   490    124    108 1
   491    125    108 1
   492    126    109 1
   493    127    111 1
   494    128    117 1
   495    152    135 1
   496    153    135 1
   497    154    136 1
   498    155    138 1
   499    156    140 1
   500    157    140 1
   501    158    141 1
   502    159    143 1
   503    160    149 1
   504    183    167 1
   505    184    167 1
   506    185    168 1
   507    186    170 1
   508    187    172 1
   509    188    172 1
   510    189    173 1
   511    190    177 1
   512    191    182 1
   513    215    199 1
   514    216    199 1
   515    217    200 1
   516    218    202 1
   517    219    204 1
   518    220    204 1
   519    221    205 1
   520    222    209 1
   521    223    214 1
   522    246    231 1
   523    247    231 1
   524    248    232 1
   525    249    234 1
   526    250    236 1
   527    251    236 1
   528    252    237 1
   529    253    244 1
   530    254    245 1
   531    278    261 1
   532    279    261 1
   533    280    262 1
   534    281    264 1
   535    282    266 1
   536    283    266 1
   537    284    267 1
   538    285    269 1
   539    286    275 1
   540    308    293 1
   541    309    293 1
   542    310    294 1
   543    311    296 1
   544    312    298 1
   545    313    298 1
   546    314    299 1
   547    315    306 1
   548    316    307 1
   549    341    323 1
   550    342    323 1
   551    343    324 1
   552    344    326 1
   553    345    328 1
   554    346    328 1
   555    347    329 1
   556    348    331 1
   557    349    336 1
   558    372    356 1
   559    373    356 1
   560    374    357 1
   561    375    359 1
   562    376    361 1
   563    377    361 1
   564    378    362 1
   565    379    366 1
   566    380    371 1
   567    406    388 1
   568    407    388 1
   569    408    389 1
   570    409    391 1
   571    410    393 1
   572    411    393 1
   573    412    394 1
   574    413    396 1
   575    414    401 1
   576    438    421 1
   577    439    421 1
   578    440    422 1
   579    441    424 1
   580    442    426 1
   581    443    426 1
   582    444    427 1
   583    445    429 1
   584    446    435 1
   585    470    453 1
   586    471    453 1
   587    472    454 1
   588    473    456 1
   589    474    458 1
   590    475    458 1
   591    476    459 1
   592    477    461 1
   593    478    467 1
   594    501    485 1
   595    502    485 1
   596    503    486 1
   597    504    488 1
   598    505    490 1
   599    506    490 1
   600    507    491 1
   601    508    495 1
   602    509    500 1
   603    533    517 1
   604    534    517 1
   605    535    518 1
   606    536    520 1
   607    537    522 1
   608    538    522 1
   609    539    523 1
   610    540    527 1
   611    541    532 1
   612    564    549 1
   613    565    549 1
   614    566    550 1
   615    567    552 1
   616    568    554 1
   617    569    554 1
   618    570    555 1
   619    571    562 1
   620    572    563 1
   621    596    579 1
   622    597    579 1
   623    598    580 1
   624    599    582 1
   625    600    584 1
   626    601    584 1
   627    602    585 1
   628    603    587 1
   629    604    593 1
   630    626    611 1
   631    627    611 1
   632    628    612 1
   633    629    614 1
   634    630    616 1
   635    631    616 1
   636    632    617 1
   637    633    624 1
   638    634    625 1
   639     32     20 1
   640     33     20 1
   641     97     85 1
   642     98     85 1
   643    255    243 1
   644    256    243 1
   645    317    305 1
   646    318    305 1
   647    350    338 1
   648    351    338 1
   649    415    403 1
   650    416    403 1
   651    573    561 1
   652    574    561 1
   653    635    623 1
   654    636    623 1
   655    129    115 1
   656    130    115 1
   657    161    147 1
   658    162    147 1
   659    287    273 1
   660    288    273 1
   661    447    433 1
   662    448    433 1
   663    479    465 1
   664    480    465 1
   665    605    591 1
   666    606    591 1
   667     63     52 1
   668     64     52 1
   669     65     52 1
   670    192    181 1
   671    193    181 1
   672    194    181 1
   673    224    213 1
   674    225    213 1
   675    226    213 1
   676    381    370 1
   677    382    370 1
   678    383    370 1
   679    510    499 1
   680    511    499 1
   681    512    499 1
   682    542    531 1
   683    543    531 1
   684    544    531 1
   685    297    637 1
   686    319   1251 1
   687    645    670 1
   688    678    702 1
   689    710    735 1
   690    743    767 1
   691    775    799 1
   692    807    831 1
   693    839    863 1
   694    871    893 1
   695    901    925 1
   696    963    988 1
   697    996   1020 1
   698   1028   1053 1
   699   1061   1085 1
   700   1093   1117 1
   701   1125   1149 1
   702   1157   1181 1
   703   1189   1211 1
   704   1219   1243 1
   705    637    638 1
   706    637    639 1
   707    637    640 1
   708    640    641 1
   709    641    642 1
   710    642    643 1
   711    642    644 1
   712    643    647 1
   713    644    645 1
   714    644    646 1
   715    646    647 1
   716    647    648 1
   717    648    649 ar
   718    648    658 ar
   719    649    650 ar
   720    650    651 ar
   721    651    652 1
   722    651    658 ar
   723    652    653 2
   724    652    654 am
   725    654    655 1
   726    655    656 2
   727    655    657 2
   728    657    658 1
   729    670    671 1
   730    670    672 1
   731    670    673 1
   732    673    674 1
   733    674    675 1
   734    675    676 1
   735    675    677 1
   736    676    680 1
   737    677    678 1
   738    677    679 1
   739    679    680 1
   740    680    681 1
   741    681    682 am
   742    681    689 1
   743    682    683 2
   744    682    684 am
   745    684    685 am
   746    685    686 2
   747    685    687 1
   748    687    688 1
   749    687    689 2
   750    702    703 1
   751    702    704 1
   752    702    705 1
   753    705    706 1
   754    706    707 1
   755    707    708 1
   756    707    709 1
   757    708    712 1
   758    709    710 1
   759    709    711 1
   760    711    712 1
   761    712    713 1
   762    713    714 ar
   763    713    723 ar
   764    714    715 ar
   765    715    716 ar
   766    716    717 1
   767    716    723 ar
   768    717    718 2
   769    717    719 am
   770    719    720 1
   771    720    721 2
   772    720    722 2
   773    722    723 1
   774    735    736 1
   775    735    737 1
   776    735    738 1
   777    738    739 1
   778    739    740 1
   779    740    741 1
   780    740    742 1
   781    741    745 1
   782    742    743 1
   783    742    744 1
   784    744    745 1
   785    745    746 1
   786    746    747 ar
   787    746    755 ar
   788    747    748 ar
   789    748    749 ar
   790    749    750 ar
   791    749    755 ar
   792    750    751 1
   793    750    752 ar
   794    752    753 ar
   795    753    754 ar
   796    754    755 ar
   797    767    768 1
   798    767    769 1
   799    767    770 1
   800    770    771 1
   801    771    772 1
   802    772    773 1
   803    772    774 1
   804    773    777 1
   805    774    775 1
   806    774    776 1
   807    776    777 1
   808    777    778 1
   809    778    779 ar
   810    778    787 ar
   811    779    780 ar
   812    780    781 ar
   813    781    782 ar
   814    781    787 ar
   815    782    783 1
   816    782    784 ar
   817    784    785 ar
   818    785    786 ar
   819    786    787 ar
   820    799    800 1
   821    799    801 1
   822    799    802 1
   823    802    803 1
   824    803    804 1
   825    804    805 1
   826    804    806 1
   827    805    809 1
   828    806    807 1
   829    806    808 1
   830    808    809 1
   831    809    810 1
   832    810    811 am
   833    810    818 1
   834    811    812 2
   835    811    813 am
   836    813    814 am
   837    814    815 2
   838    814    816 1
   839    816    817 1
   840    816    818 2
   841    831    832 1
   842    831    833 1
   843    831    834 1
   844    834    835 1
   845    835    836 1
   846    836    837 1
   847    836    838 1
   848    837    841 1
   849    838    839 1
   850    838    840 1
   851    840    841 1
   852    841    842 1
   853    842    843 am
   854    842    850 1
   855    843    844 2
   856    843    845 am
   857    845    846 am
   858    846    847 2
   859    846    848 1
   860    848    849 1
   861    848    850 2
   862    863    864 1
   863    863    865 1
   864    863    866 1
   865    866    867 1
   866    867    868 1
   867    868    869 1
   868    868    870 1
   869    869    873 1
   870    870    871 1
   871    870    872 1
   872    872    873 1
   873    873    874 1
   874    874    875 am
   875    874    881 1
   876    875    876 2
   877    875    877 1
   878    877    878 2
   879    878    879 2
   880    878    880 2
   881    880    881 2
   882    893    894 1
   883    893    895 1
   884    893    896 1
   885    896    897 1
   886    897    898 1
   887    898    899 1
   888    898    900 1
   889    899    903 1
   890    900    901 1
   891    900    902 1
   892    902    903 1
   893    903    904 1
   894    904    905 ar
   895    904    913 ar
   896    905    906 ar
   897    906    907 ar
   898    907    908 ar
   899    907    913 ar
   900    908    909 1
   901    908    910 ar
   902    910    911 ar
   903    911    912 ar
   904    912    913 ar
   905    925    926 1
   906    925    927 1
   907    925    928 1
   908    928    929 1
   909    929    930 1
   910    930    931 1
   911    930    932 1
   912    931    935 1
   913    932    933 1
   914    932    934 1
   915    934    935 1
   916    935    936 1
   917    936    937 am
   918    936    943 1
   919    937    938 2
   920    937    939 1
   921    939    940 2
   922    940    941 2
   923    940    942 2
   924    942    943 2
   925    955    956 1
   926    955    957 1
   927    955    958 1
   928    958    959 1
   929    959    960 1
   930    960    961 1
   931    960    962 1
   932    961    965 1
   933    962    963 1
   934    962    964 1
   935    964    965 1
   936    965    966 1
   937    966    967 ar
   938    966    976 ar
   939    967    968 ar
   940    968    969 ar
   941    969    970 1
   942    969    976 ar
   943    970    971 2
   944    970    972 am
   945    972    973 1
   946    973    974 2
   947    973    975 2
   948    975    976 1
   949    988    989 1
   950    988    990 1
   951    988    991 1
   952    991    992 1
   953    992    993 1
   954    993    994 1
   955    993    995 1
   956    994    998 1
   957    995    996 1
   958    995    997 1
   959    997    998 1
   960    998    999 1
   961    999   1000 am
   962    999   1007 1
   963   1000   1001 2
   964   1000   1002 am
   965   1002   1003 am
   966   1003   1004 2
   967   1003   1005 1
   968   1005   1006 1
   969   1005   1007 2
   970   1020   1021 1
   971   1020   1022 1
   972   1020   1023 1
   973   1023   1024 1
   974   1024   1025 1
   975   1025   1026 1
   976   1025   1027 1
   977   1026   1030 1
   978   1027   1028 1
   979   1027   1029 1
   980   1029   1030 1
   981   1030   1031 1
   982   1031   1032 ar
   983   1031   1041 ar
   984   1032   1033 ar
   985   1033   1034 ar
   986   1034   1035 1
   987   1034   1041 ar
   988   1035   1036 2
   989   1035   1037 am
   990   1037   1038 1
   991   1038   1039 2
   992   1038   1040 2
   993   1040   1041 1
   994   1053   1054 1
   995   1053   1055 1
   996   1053   1056 1
   997   1056   1057 1
   998   1057   1058 1
   999   1058   1059 1
  1000   1058   1060 1
  1001   1059   1063 1
  1002   1060   1061 1
  1003   1060   1062 1
  1004   1062   1063 1
  1005   1063   1064 1
  1006   1064   1065 ar
  1007   1064   1073 ar
  1008   1065   1066 ar
  1009   1066   1067 ar
  1010   1067   1068 ar
  1011   1067   1073 ar
  1012   1068   1069 1
  1013   1068   1070 ar
  1014   1070   1071 ar
  1015   1071   1072 ar
  1016   1072   1073 ar
  1017   1085   1086 1
  1018   1085   1087 1
  1019   1085   1088 1
  1020   1088   1089 1
  1021   1089   1090 1
  1022   1090   1091 1
  1023   1090   1092 1
  1024   1091   1095 1
  1025   1092   1093 1
  1026   1092   1094 1
  1027   1094   1095 1
  1028   1095   1096 1
  1029   1096   1097 ar
  1030   1096   1105 ar
  1031   1097   1098 ar
  1032   1098   1099 ar
  1033   1099   1100 ar
  1034   1099   1105 ar
  1035   1100   1101 1
  1036   1100   1102 ar
  1037   1102   1103 ar
  1038   1103   1104 ar
  1039   1104   1105 ar
  1040   1117   1118 1
  1041   1117   1119 1
  1042   1117   1120 1
  1043   1120   1121 1
  1044   1121   1122 1
  1045   1122   1123 1
  1046   1122   1124 1
  1047   1123   1127 1
  1048   1124   1125 1
  1049   1124   1126 1
  1050   1126   1127 1
  1051   1127   1128 1
  1052   1128   1129 am
  1053   1128   1136 1
  1054   1129   1130 2
  1055   1129   1131 am
  1056   1131   1132 am
  1057   1132   1133 2
  1058   1132   1134 1
  1059   1134   1135 1
  1060   1134   1136 2
  1061   1149   1150 1
  1062   1149   1151 1
  1063   1149   1152 1
  1064   1152   1153 1
  1065   1153   1154 1
  1066   1154   1155 1
  1067   1154   1156 1
  1068   1155   1159 1
  1069   1156   1157 1
  1070   1156   1158 1
  1071   1158   1159 1
  1072   1159   1160 1
  1073   1160   1161 am
  1074   1160   1168 1
  1075   1161   1162 2
  1076   1161   1163 am
  1077   1163   1164 am
  1078   1164   1165 2
  1079   1164   1166 1
  1080   1166   1167 1
  1081   1166   1168 2
  1082   1181   1182 1
  1083   1181   1183 1
  1084   1181   1184 1
  1085   1184   1185 1
  1086   1185   1186 1
  1087   1186   1187 1
  1088   1186   1188 1
  1089   1187   1191 1
  1090   1188   1189 1
  1091   1188   1190 1
  1092   1190   1191 1
  1093   1191   1192 1
  1094   1192   1193 am
  1095   1192   1199 1
  1096   1193   1194 2
  1097   1193   1195 1
  1098   1195   1196 2
  1099   1196   1197 2
  1100   1196   1198 2
  1101   1198   1199 2
  1102   1211   1212 1
  1103   1211   1213 1
  1104   1211   1214 1
  1105   1214   1215 1
  1106   1215   1216 1
  1107   1216   1217 1
  1108   1216   1218 1
  1109   1217   1221 1
  1110   1218   1219 1
  1111   1218   1220 1
  1112   1220   1221 1
  1113   1221   1222 1
  1114   1222   1223 ar
  1115   1222   1231 ar
  1116   1223   1224 ar
  1117   1224   1225 ar
  1118   1225   1226 ar
  1119   1225   1231 ar
  1120   1226   1227 1
  1121   1226   1228 ar
  1122   1228   1229 ar
  1123   1229   1230 ar
  1124   1230   1231 ar
  1125   1243   1244 1
  1126   1243   1245 1
  1127   1243   1246 1
  1128   1246   1247 1
  1129   1247   1248 1
  1130   1248   1249 1
  1131   1248   1250 1
  1132   1249   1253 1
  1133   1250   1251 1
  1134   1250   1252 1
  1135   1252   1253 1
  1136   1253   1254 1
  1137   1254   1255 am
  1138   1254   1261 1
  1139   1255   1256 2
  1140   1255   1257 1
  1141   1257   1258 2
  1142   1258   1259 2
  1143   1258   1260 2
  1144   1260   1261 2
  1145    659    641 1
  1146    660    641 1
  1147    661    642 1
  1148    662    644 1
  1149    663    646 1
  1150    664    646 1
  1151    665    647 1
  1152    666    649 1
  1153    667    654 1
  1154    690    674 1
  1155    691    674 1
  1156    692    675 1
  1157    693    677 1
  1158    694    679 1
  1159    695    679 1
  1160    696    680 1
  1161    697    684 1
  1162    698    689 1
  1163    724    706 1
  1164    725    706 1
  1165    726    707 1
  1166    727    709 1
  1167    728    711 1
  1168    729    711 1
  1169    730    712 1
  1170    731    714 1
  1171    732    719 1
  1172    756    739 1
  1173    757    739 1
  1174    758    740 1
  1175    759    742 1
  1176    760    744 1
  1177    761    744 1
  1178    762    745 1
  1179    763    747 1
  1180    764    753 1
  1181    788    771 1
  1182    789    771 1
  1183    790    772 1
  1184    791    774 1
  1185    792    776 1
  1186    793    776 1
  1187    794    777 1
  1188    795    779 1
  1189    796    785 1
  1190    819    803 1
  1191    820    803 1
  1192    821    804 1
  1193    822    806 1
  1194    823    808 1
  1195    824    808 1
  1196    825    809 1
  1197    826    813 1
  1198    827    818 1
  1199    851    835 1
  1200    852    835 1
  1201    853    836 1
  1202    854    838 1
  1203    855    840 1
  1204    856    840 1
  1205    857    841 1
  1206    858    845 1
  1207    859    850 1
  1208    882    867 1
  1209    883    867 1
  1210    884    868 1
  1211    885    870 1
  1212    886    872 1
  1213    887    872 1
  1214    888    873 1
  1215    889    880 1
  1216    890    881 1
  1217    914    897 1
  1218    915    897 1
  1219    916    898 1
  1220    917    900 1
  1221    918    902 1
  1222    919    902 1
  1223    920    903 1
  1224    921    905 1
  1225    922    911 1
  1226    944    929 1
  1227    945    929 1
  1228    946    930 1
  1229    947    932 1
  1230    948    934 1
  1231    949    934 1
  1232    950    935 1
  1233    951    942 1
  1234    952    943 1
  1235    977    959 1
  1236    978    959 1
  1237    979    960 1
  1238    980    962 1
  1239    981    964 1
  1240    982    964 1
  1241    983    965 1
  1242    984    967 1
  1243    985    972 1
  1244   1008    992 1
  1245   1009    992 1
  1246   1010    993 1
  1247   1011    995 1
  1248   1012    997 1
  1249   1013    997 1
  1250   1014    998 1
  1251   1015   1002 1
  1252   1016   1007 1
  1253   1042   1024 1
  1254   1043   1024 1
  1255   1044   1025 1
  1256   1045   1027 1
  1257   1046   1029 1
  1258   1047   1029 1
  1259   1048   1030 1
  1260   1049   1032 1
  1261   1050   1037 1
  1262   1074   1057 1
  1263   1075   1057 1
  1264   1076   1058 1
  1265   1077   1060 1
  1266   1078   1062 1
  1267   1079   1062 1
  1268   1080   1063 1
  1269   1081   1065 1
  1270   1082   1071 1
  1271   1106   1089 1
  1272   1107   1089 1
  1273   1108   1090 1
  1274   1109   1092 1
  1275   1110   1094 1
  1276   1111   1094 1
  1277   1112   1095 1
  1278   1113   1097 1
  1279   1114   1103 1
  1280   1137   1121 1
  1281   1138   1121 1
  1282   1139   1122 1
  1283   1140   1124 1
  1284   1141   1126 1
  1285   1142   1126 1
  1286   1143   1127 1
  1287   1144   1131 1
  1288   1145   1136 1
  1289   1169   1153 1
  1290   1170   1153 1
  1291   1171   1154 1
  1292   1172   1156 1
  1293   1173   1158 1
  1294   1174   1158 1
  1295   1175   1159 1
  1296   1176   1163 1
  1297   1177   1168 1
  1298   1200   1185 1
  1299   1201   1185 1
  1300   1202   1186 1
  1301   1203   1188 1
  1302   1204   1190 1
  1303   1205   1190 1
  1304   1206   1191 1
  1305   1207   1198 1
  1306   1208   1199 1
  1307   1232   1215 1
  1308   1233   1215 1
  1309   1234   1216 1
  1310   1235   1218 1
  1311   1236   1220 1
  1312   1237   1220 1
  1313   1238   1221 1
  1314   1239   1223 1
  1315   1240   1229 1
  1316   1262   1247 1
  1317   1263   1247 1
  1318   1264   1248 1
  1319   1265   1250 1
  1320   1266   1252 1
  1321   1267   1252 1
  1322   1268   1253 1
  1323   1269   1260 1
  1324   1270   1261 1
  1325    668    656 1
  1326    669    656 1
  1327    733    721 1
  1328    734    721 1
  1329    891    879 1
  1330    892    879 1
  1331    953    941 1
  1332    954    941 1
  1333    986    974 1
  1334    987    974 1
  1335   1051   1039 1
  1336   1052   1039 1
  1337   1209   1197 1
  1338   1210   1197 1
  1339   1271   1259 1
  1340   1272   1259 1
  1341    765    751 1
  1342    766    751 1
  1343    797    783 1
  1344    798    783 1
  1345    923    909 1
  1346    924    909 1
  1347   1083   1069 1
  1348   1084   1069 1
  1349   1115   1101 1
  1350   1116   1101 1
  1351   1241   1227 1
  1352   1242   1227 1
  1353    699    688 1
  1354    700    688 1
  1355    701    688 1
  1356    828    817 1
  1357    829    817 1
  1358    830    817 1
  1359    860    849 1
  1360    861    849 1
  1361    862    849 1
  1362   1017   1006 1
  1363   1018   1006 1
  1364   1019   1006 1
  1365   1146   1135 1
  1366   1147   1135 1
  1367   1148   1135 1
  1368   1178   1167 1
  1369   1179   1167 1
  1370   1180   1167 1
  1371    933   1273 1
  1372    955   1887 1
  1373   1281   1306 1
  1374   1314   1338 1
  1375   1346   1371 1
  1376   1379   1403 1
  1377   1411   1435 1
  1378   1443   1467 1
  1379   1475   1499 1
  1380   1507   1529 1
  1381   1537   1561 1
  1382   1599   1624 1
  1383   1632   1656 1
  1384   1664   1689 1
  1385   1697   1721 1
  1386   1729   1753 1
  1387   1761   1785 1
  1388   1793   1817 1
  1389   1825   1847 1
  1390   1855   1879 1
  1391   1273   1274 1
  1392   1273   1275 1
  1393   1273   1276 1
  1394   1276   1277 1
  1395   1277   1278 1
  1396   1278   1279 1
  1397   1278   1280 1
  1398   1279   1283 1
  1399   1280   1281 1
  1400   1280   1282 1
  1401   1282   1283 1
  1402   1283   1284 1
  1403   1284   1285 ar
  1404   1284   1294 ar
  1405   1285   1286 ar
  1406   1286   1287 ar
  1407   1287   1288 1
  1408   1287   1294 ar
  1409   1288   1289 2
  1410   1288   1290 am
  1411   1290   1291 1
  1412   1291   1292 2
  1413   1291   1293 2
  1414   1293   1294 1
  1415   1306   1307 1
  1416   1306   1308 1
  1417   1306   1309 1
  1418   1309   1310 1
  1419   1310   1311 1
  1420   1311   1312 1
  1421   1311   1313 1
  1422   1312   1316 1
  1423   1313   1314 1
  1424   1313   1315 1
  1425   1315   1316 1
  1426   1316   1317 1
  1427   1317   1318 am
  1428   1317   1325 1
  1429   1318   1319 2
  1430   1318   1320 am
  1431   1320   1321 am
  1432   1321   1322 2
  1433   1321   1323 1
  1434   1323   1324 1
  1435   1323   1325 2
  1436   1338   1339 1
  1437   1338   1340 1
  1438   1338   1341 1
  1439   1341   1342 1
  1440   1342   1343 1
  1441   1343   1344 1
  1442   1343   1345 1
  1443   1344   1348 1
  1444   1345   1346 1
  1445   1345   1347 1
  1446   1347   1348 1
  1447   1348   1349 1
  1448   1349   1350 ar
  1449   1349   1359 ar
  1450   1350   1351 ar
  1451   1351   1352 ar
  1452   1352   1353 1
  1453   1352   1359 ar
  1454   1353   1354 2
  1455   1353   1355 am
  1456   1355   1356 1
  1457   1356   1357 2
  1458   1356   1358 2
  1459   1358   1359 1
  1460   1371   1372 1
  1461   1371   1373 1
  1462   1371   1374 1
  1463   1374   1375 1
  1464   1375   1376 1
  1465   1376   1377 1
  1466   1376   1378 1
  1467   1377   1381 1
  1468   1378   1379 1
  1469   1378   1380 1
  1470   1380   1381 1
  1471   1381   1382 1
  1472   1382   1383 ar
  1473   1382   1391 ar
  1474   1383   1384 ar
  1475   1384   1385 ar
  1476   1385   1386 ar
  1477   1385   1391 ar
  1478   1386   1387 1
  1479   1386   1388 ar
  1480   1388   1389 ar
  1481   1389   1390 ar
  1482   1390   1391 ar
  1483   1403   1404 1
  1484   1403   1405 1
  1485   1403   1406 1
  1486   1406   1407 1
  1487   1407   1408 1
  1488   1408   1409 1
  1489   1408   1410 1
  1490   1409   1413 1
  1491   1410   1411 1
  1492   1410   1412 1
  1493   1412   1413 1
  1494   1413   1414 1
  1495   1414   1415 ar
  1496   1414   1423 ar
  1497   1415   1416 ar
  1498   1416   1417 ar
  1499   1417   1418 ar
  1500   1417   1423 ar
  1501   1418   1419 1
  1502   1418   1420 ar
  1503   1420   1421 ar
  1504   1421   1422 ar
  1505   1422   1423 ar
  1506   1435   1436 1
  1507   1435   1437 1
  1508   1435   1438 1
  1509   1438   1439 1
  1510   1439   1440 1
  1511   1440   1441 1
  1512   1440   1442 1
  1513   1441   1445 1
  1514   1442   1443 1
  1515   1442   1444 1
  1516   1444   1445 1
  1517   1445   1446 1
  1518   1446   1447 am
  1519   1446   1454 1
  1520   1447   1448 2
  1521   1447   1449 am
  1522   1449   1450 am
  1523   1450   1451 2
  1524   1450   1452 1
  1525   1452   1453 1
  1526   1452   1454 2
  1527   1467   1468 1
  1528   1467   1469 1
  1529   1467   1470 1
  1530   1470   1471 1
  1531   1471   1472 1
  1532   1472   1473 1
  1533   1472   1474 1
  1534   1473   1477 1
  1535   1474   1475 1
  1536   1474   1476 1
  1537   1476   1477 1
  1538   1477   1478 1
  1539   1478   1479 am
  1540   1478   1486 1
  1541   1479   1480 2
  1542   1479   1481 am
  1543   1481   1482 am
  1544   1482   1483 2
  1545   1482   1484 1
  1546   1484   1485 1
  1547   1484   1486 2
  1548   1499   1500 1
  1549   1499   1501 1
  1550   1499   1502 1
  1551   1502   1503 1
  1552   1503   1504 1
  1553   1504   1505 1
  1554   1504   1506 1
  1555   1505   1509 1
  1556   1506   1507 1
  1557   1506   1508 1
  1558   1508   1509 1
  1559   1509   1510 1
  1560   1510   1511 am
  1561   1510   1517 1
  1562   1511   1512 2
  1563   1511   1513 1
  1564   1513   1514 2
  1565   1514   1515 2
  1566   1514   1516 2
  1567   1516   1517 2
  1568   1529   1530 1
  1569   1529   1531 1
  1570   1529   1532 1
  1571   1532   1533 1
  1572   1533   1534 1
  1573   1534   1535 1
  1574   1534   1536 1
  1575   1535   1539 1
  1576   1536   1537 1
  1577   1536   1538 1
  1578   1538   1539 1
  1579   1539   1540 1
  1580   1540   1541 ar
  1581   1540   1549 ar
  1582   1541   1542 ar
  1583   1542   1543 ar
  1584   1543   1544 ar
  1585   1543   1549 ar
  1586   1544   1545 1
  1587   1544   1546 ar
  1588   1546   1547 ar
  1589   1547   1548 ar
  1590   1548   1549 ar
  1591   1561   1562 1
  1592   1561   1563 1
  1593   1561   1564 1
  1594   1564   1565 1
  1595   1565   1566 1
  1596   1566   1567 1
  1597   1566   1568 1
  1598   1567   1571 1
  1599   1568   1569 1
  1600   1568   1570 1
  1601   1570   1571 1
  1602   1571   1572 1
  1603   1572   1573 am
  1604   1572   1579 1
  1605   1573   1574 2
  1606   1573   1575 1
  1607   1575   1576 2
  1608   1576   1577 2
  1609   1576   1578 2
  1610   1578   1579 2
  1611   1591   1592 1
  1612   1591   1593 1
  1613   1591   1594 1
  1614   1594   1595 1
  1615   1595   1596 1
  1616   1596   1597 1
  1617   1596   1598 1
  1618   1597   1601 1
  1619   1598   1599 1
  1620   1598   1600 1
  1621   1600   1601 1
  1622   1601   1602 1
  1623   1602   1603 ar
  1624   1602   1612 ar
  1625   1603   1604 ar
  1626   1604   1605 ar
  1627   1605   1606 1
  1628   1605   1612 ar
  1629   1606   1607 2
  1630   1606   1608 am
  1631   1608   1609 1
  1632   1609   1610 2
  1633   1609   1611 2
  1634   1611   1612 1
  1635   1624   1625 1
  1636   1624   1626 1
  1637   1624   1627 1
  1638   1627   1628 1
  1639   1628   1629 1
  1640   1629   1630 1
  1641   1629   1631 1
  1642   1630   1634 1
  1643   1631   1632 1
  1644   1631   1633 1
  1645   1633   1634 1
  1646   1634   1635 1
  1647   1635   1636 am
  1648   1635   1643 1
  1649   1636   1637 2
  1650   1636   1638 am
  1651   1638   1639 am
  1652   1639   1640 2
  1653   1639   1641 1
  1654   1641   1642 1
  1655   1641   1643 2
  1656   1656   1657 1
  1657   1656   1658 1
  1658   1656   1659 1
  1659   1659   1660 1
  1660   1660   1661 1
  1661   1661   1662 1
  1662   1661   1663 1
  1663   1662   1666 1
  1664   1663   1664 1
  1665   1663   1665 1
  1666   1665   1666 1
  1667   1666   1667 1
  1668   1667   1668 ar
  1669   1667   1677 ar
  1670   1668   1669 ar
  1671   1669   1670 ar
  1672   1670   1671 1
  1673   1670   1677 ar
  1674   1671   1672 2
  1675   1671   1673 am
  1676   1673   1674 1
  1677   1674   1675 2
  1678   1674   1676 2
  1679   1676   1677 1
  1680   1689   1690 1
  1681   1689   1691 1
  1682   1689   1692 1
  1683   1692   1693 1
  1684   1693   1694 1
  1685   1694   1695 1
  1686   1694   1696 1
  1687   1695   1699 1
  1688   1696   1697 1
  1689   1696   1698 1
  1690   1698   1699 1
  1691   1699   1700 1
  1692   1700   1701 ar
  1693   1700   1709 ar
  1694   1701   1702 ar
  1695   1702   1703 ar
  1696   1703   1704 ar
  1697   1703   1709 ar
  1698   1704   1705 1
  1699   1704   1706 ar
  1700   1706   1707 ar
  1701   1707   1708 ar
  1702   1708   1709 ar
  1703   1721   1722 1
  1704   1721   1723 1
  1705   1721   1724 1
  1706   1724   1725 1
  1707   1725   1726 1
  1708   1726   1727 1
  1709   1726   1728 1
  1710   1727   1731 1
  1711   1728   1729 1
  1712   1728   1730 1
  1713   1730   1731 1
  1714   1731   1732 1
  1715   1732   1733 ar
  1716   1732   1741 ar
  1717   1733   1734 ar
  1718   1734   1735 ar
  1719   1735   1736 ar
  1720   1735   1741 ar
  1721   1736   1737 1
  1722   1736   1738 ar
  1723   1738   1739 ar
  1724   1739   1740 ar
  1725   1740   1741 ar
  1726   1753   1754 1
  1727   1753   1755 1
  1728   1753   1756 1
  1729   1756   1757 1
  1730   1757   1758 1
  1731   1758   1759 1
  1732   1758   1760 1
  1733   1759   1763 1
  1734   1760   1761 1
  1735   1760   1762 1
  1736   1762   1763 1
  1737   1763   1764 1
  1738   1764   1765 am
  1739   1764   1772 1
  1740   1765   1766 2
  1741   1765   1767 am
  1742   1767   1768 am
  1743   1768   1769 2
  1744   1768   1770 1
  1745   1770   1771 1
  1746   1770   1772 2
  1747   1785   1786 1
  1748   1785   1787 1
  1749   1785   1788 1
  1750   1788   1789 1
  1751   1789   1790 1
  1752   1790   1791 1
  1753   1790   1792 1
  1754   1791   1795 1
  1755   1792   1793 1
  1756   1792   1794 1
  1757   1794   1795 1
  1758   1795   1796 1
  1759   1796   1797 am
  1760   1796   1804 1
  1761   1797   1798 2
  1762   1797   1799 am
  1763   1799   1800 am
  1764   1800   1801 2
  1765   1800   1802 1
  1766   1802   1803 1
  1767   1802   1804 2
  1768   1817   1818 1
  1769   1817   1819 1
  1770   1817   1820 1
  1771   1820   1821 1
  1772   1821   1822 1
  1773   1822   1823 1
  1774   1822   1824 1
  1775   1823   1827 1
  1776   1824   1825 1
  1777   1824   1826 1
  1778   1826   1827 1
  1779   1827   1828 1
  1780   1828   1829 am
  1781   1828   1835 1
  1782   1829   1830 2
  1783   1829   1831 1
  1784   1831   1832 2
  1785   1832   1833 2
  1786   1832   1834 2
  1787   1834   1835 2
  1788   1847   1848 1
  1789   1847   1849 1
  1790   1847   1850 1
  1791   1850   1851 1
  1792   1851   1852 1
  1793   1852   1853 1
  1794   1852   1854 1
  1795   1853   1857 1
  1796   1854   1855 1
  1797   1854   1856 1
  1798   1856   1857 1
  1799   1857   1858 1
  1800   1858   1859 ar
  1801   1858   1867 ar
  1802   1859   1860 ar
  1803   1860   1861 ar
  1804   1861   1862 ar
  1805   1861   1867 ar
  1806   1862   1863 1
  1807   1862   1864 ar
  1808   1864   1865 ar
  1809   1865   1866 ar
  1810   1866   1867 ar
  1811   1879   1880 1
  1812   1879   1881 1
  1813   1879   1882 1
  1814   1882   1883 1
  1815   1883   1884 1
  1816   1884   1885 1
  1817   1884   1886 1
  1818   1885   1889 1
  1819   1886   1887 1
  1820   1886   1888 1
  1821   1888   1889 1
  1822   1889   1890 1
  1823   1890   1891 am
  1824   1890   1897 1
  1825   1891   1892 2
  1826   1891   1893 1
  1827   1893   1894 2
  1828   1894   1895 2
  1829   1894   1896 2
  1830   1896   1897 2
  1831   1295   1277 1
  1832   1296   1277 1
  1833   1297   1278 1
  1834   1298   1280 1
  1835   1299   1282 1
  1836   1300   1282 1
  1837   1301   1283 1
  1838   1302   1285 1
  1839   1303   1290 1
  1840   1326   1310 1
  1841   1327   1310 1
  1842   1328   1311 1
  1843   1329   1313 1
  1844   1330   1315 1
  1845   1331   1315 1
  1846   1332   1316 1
  1847   1333   1320 1
  1848   1334   1325 1
  1849   1360   1342 1
  1850   1361   1342 1
  1851   1362   1343 1
  1852   1363   1345 1
  1853   1364   1347 1
  1854   1365   1347 1
  1855   1366   1348 1
  1856   1367   1350 1
  1857   1368   1355 1
  1858   1392   1375 1
  1859   1393   1375 1
  1860   1394   1376 1
  1861   1395   1378 1
  1862   1396   1380 1
  1863   1397   1380 1
  1864   1398   1381 1
  1865   1399   1383 1
  1866   1400   1389 1
  1867   1424   1407 1
  1868   1425   1407 1
  1869   1426   1408 1
  1870   1427   1410 1
  1871   1428   1412 1
  1872   1429   1412 1
  1873   1430   1413 1
  1874   1431   1415 1
  1875   1432   1421 1
  1876   1455   1439 1
  1877   1456   1439 1
  1878   1457   1440 1
  1879   1458   1442 1
  1880   1459   1444 1
  1881   1460   1444 1
  1882   1461   1445 1
  1883   1462   1449 1
  1884   1463   1454 1
  1885   1487   1471 1
  1886   1488   1471 1
  1887   1489   1472 1
  1888   1490   1474 1
  1889   1491   1476 1
  1890   1492   1476 1
  1891   1493   1477 1
  1892   1494   1481 1
  1893   1495   1486 1
  1894   1518   1503 1
  1895   1519   1503 1
  1896   1520   1504 1
  1897   1521   1506 1
  1898   1522   1508 1
  1899   1523   1508 1
  1900   1524   1509 1
  1901   1525   1516 1
  1902   1526   1517 1
  1903   1550   1533 1
  1904   1551   1533 1
  1905   1552   1534 1
  1906   1553   1536 1
  1907   1554   1538 1
  1908   1555   1538 1
  1909   1556   1539 1
  1910   1557   1541 1
  1911   1558   1547 1
  1912   1580   1565 1
  1913   1581   1565 1
  1914   1582   1566 1
  1915   1583   1568 1
  1916   1584   1570 1
  1917   1585   1570 1
  1918   1586   1571 1
  1919   1587   1578 1
  1920   1588   1579 1
  1921   1613   1595 1
  1922   1614   1595 1
  1923   1615   1596 1
  1924   1616   1598 1
  1925   1617   1600 1
  1926   1618   1600 1
  1927   1619   1601 1
  1928   1620   1603 1
  1929   1621   1608 1
  1930   1644   1628 1
  1931   1645   1628 1
  1932   1646   1629 1
  1933   1647   1631 1
  1934   1648   1633 1
  1935   1649   1633 1
  1936   1650   1634 1
  1937   1651   1638 1
  1938   1652   1643 1
  1939   1678   1660 1
  1940   1679   1660 1
  1941   1680   1661 1
  1942   1681   1663 1
  1943   1682   1665 1
  1944   1683   1665 1
  1945   1684   1666 1
  1946   1685   1668 1
  1947   1686   1673 1
  1948   1710   1693 1
  1949   1711   1693 1
  1950   1712   1694 1
  1951   1713   1696 1
  1952   1714   1698 1
  1953   1715   1698 1
  1954   1716   1699 1
  1955   1717   1701 1
  1956   1718   1707 1
  1957   1742   1725 1
  1958   1743   1725 1
  1959   1744   1726 1
  1960   1745   1728 1
  1961   1746   1730 1
  1962   1747   1730 1
  1963   1748   1731 1
  1964   1749   1733 1
  1965   1750   1739 1
  1966   1773   1757 1
  1967   1774   1757 1
  1968   1775   1758 1
  1969   1776   1760 1
  1970   1777   1762 1
  1971   1778   1762 1
  1972   1779   1763 1
  1973   1780   1767 1
  1974   1781   1772 1
  1975   1805   1789 1
  1976   1806   1789 1
  1977   1807   1790 1
  1978   1808   1792 1
  1979   1809   1794 1
  1980   1810   1794 1
  1981   1811   1795 1
  1982   1812   1799 1
  1983   1813   1804 1
  1984   1836   1821 1
  1985   1837   1821 1
  1986   1838   1822 1
  1987   1839   1824 1
  1988   1840   1826 1
  1989   1841   1826 1
  1990   1842   1827 1
  1991   1843   1834 1
  1992   1844   1835 1
  1993   1868   1851 1
  1994   1869   1851 1
  1995   1870   1852 1
  1996   1871   1854 1
  1997   1872   1856 1
  1998   1873   1856 1
  1999   1874   1857 1
  2000   1875   1859 1
  2001   1876   1865 1
  2002   1898   1883 1
  2003   1899   1883 1
  2004   1900   1884 1
  2005   1901   1886 1
  2006   1902   1888 1
  2007   1903   1888 1
  2008   1904   1889 1
  2009   1905   1896 1
  2010   1906   1897 1
  2011   1304   1292 1
  2012   1305   1292 1
  2013   1369   1357 1
  2014   1370   1357 1
  2015   1527   1515 1
  2016   1528   1515 1
  2017   1589   1577 1
  2018   1590   1577 1
  2019   1622   1610 1
  2020   1623   1610 1
  2021   1687   1675 1
  2022   1688   1675 1
  2023   1845   1833 1
  2024   1846   1833 1
  2025   1907   1895 1
  2026   1908   1895 1
  2027   1401   1387 1
  2028   1402   1387 1
  2029   1433   1419 1
  2030   1434   1419 1
  2031   1559   1545 1
  2032   1560   1545 1
  2033   1719   1705 1
  2034   1720   1705 1
  2035   1751   1737 1
  2036   1752   1737 1
  2037   1877   1863 1
  2038   1878   1863 1
  2039   1335   1324 1
  2040   1336   1324 1
  2041   1337   1324 1
  2042   1464   1453 1
  2043   1465   1453 1
  2044   1466   1453 1
  2045   1496   1485 1
  2046   1497   1485 1
  2047   1498   1485 1
  2048   1653   1642 1
  2049   1654   1642 1
  2050   1655   1642 1
  2051   1782   1771 1
  2052   1783   1771 1
  2053   1784   1771 1
  2054   1814   1803 1
  2055   1815   1803 1
  2056   1816   1803 1
  2057   1569   1909 1
  2058   1591   2141 1
  2059   1917   1942 1
  2060   1950   1974 1
  2061   1982   2007 1
  2062   2047   2071 1
  2063   2079   2101 1
  2064   2109   2133 1
  2065   1909   1910 1
  2066   1909   1911 1
  2067   1909   1912 1
  2068   1912   1913 1
  2069   1913   1914 1
  2070   1914   1915 1
  2071   1914   1916 1
  2072   1915   1919 1
  2073   1916   1917 1
  2074   1916   1918 1
  2075   1918   1919 1
  2076   1919   1920 1
  2077   1920   1921 ar
  2078   1920   1930 ar
  2079   1921   1922 ar
  2080   1922   1923 ar
  2081   1923   1924 1
  2082   1923   1930 ar
  2083   1924   1925 2
  2084   1924   1926 am
  2085   1926   1927 1
  2086   1927   1928 2
  2087   1927   1929 2
  2088   1929   1930 1
  2089   1942   1943 1
  2090   1942   1944 1
  2091   1942   1945 1
  2092   1945   1946 1
  2093   1946   1947 1
  2094   1947   1948 1
  2095   1947   1949 1
  2096   1948   1952 1
  2097   1949   1950 1
  2098   1949   1951 1
  2099   1951   1952 1
  2100   1952   1953 1
  2101   1953   1954 am
  2102   1953   1961 1
  2103   1954   1955 2
  2104   1954   1956 am
  2105   1956   1957 am
  2106   1957   1958 2
  2107   1957   1959 1
  2108   1959   1960 1
  2109   1959   1961 2
  2110   1974   1975 1
  2111   1974   1976 1
  2112   1974   1977 1
  2113   1977   1978 1
  2114   1978   1979 1
  2115   1979   1980 1
  2116   1979   1981 1
  2117   1980   1984 1
  2118   1981   1982 1
  2119   1981   1983 1
  2120   1983   1984 1
  2121   1984   1985 1
  2122   1985   1986 ar
  2123   1985   1995 ar
  2124   1986   1987 ar
  2125   1987   1988 ar
  2126   1988   1989 1
  2127   1988   1995 ar
  2128   1989   1990 2
  2129   1989   1991 am
  2130   1991   1992 1
  2131   1992   1993 2
  2132   1992   1994 2
  2133   1994   1995 1
  2134   2007   2008 1
  2135   2007   2009 1
  2136   2007   2010 1
  2137   2010   2011 1
  2138   2011   2012 1
  2139   2012   2013 1
  2140   2012   2014 1
  2141   2013   2017 1
  2142   2014   2015 1
  2143   2014   2016 1
  2144   2016   2017 1
  2145   2017   2018 1
  2146   2018   2019 ar
  2147   2018   2027 ar
  2148   2019   2020 ar
  2149   2020   2021 ar
  2150   2021   2022 ar
  2151   2021   2027 ar
  2152   2022   2023 1
  2153   2022   2024 ar
  2154   2024   2025 ar
  2155   2025   2026 ar
  2156   2026   2027 ar
  2157   2039   2040 1
  2158   2039   2041 1
  2159   2039   2042 1
  2160   2042   2043 1
  2161   2043   2044 1
  2162   2044   2045 1
  2163   2044   2046 1
  2164   2045   2049 1
  2165   2046   2047 1
  2166   2046   2048 1
  2167   2048   2049 1
  2168   2049   2050 1
  2169   2050   2051 am
  2170   2050   2058 1
  2171   2051   2052 2
  2172   2051   2053 am
  2173   2053   2054 am
  2174   2054   2055 2
  2175   2054   2056 1
  2176   2056   2057 1
  2177   2056   2058 2
  2178   2071   2072 1
  2179   2071   2073 1
  2180   2071   2074 1
  2181   2074   2075 1
  2182   2075   2076 1
  2183   2076   2077 1
  2184   2076   2078 1
  2185   2077   2081 1
  2186   2078   2079 1
  2187   2078   2080 1
  2188   2080   2081 1
  2189   2081   2082 1
  2190   2082   2083 am
  2191   2082   2089 1
  2192   2083   2084 2
  2193   2083   2085 1
  2194   2085   2086 2
  2195   2086   2087 2
  2196   2086   2088 2
  2197   2088   2089 2
  2198   2101   2102 1
  2199   2101   2103 1
  2200   2101   2104 1
  2201   2104   2105 1
  2202   2105   2106 1
  2203   2106   2107 1
  2204   2106   2108 1
  2205   2107   2111 1
  2206   2108   2109 1
  2207   2108   2110 1
  2208   2110   2111 1
  2209   2111   2112 1
  2210   2112   2113 ar
  2211   2112   2121 ar
  2212   2113   2114 ar
  2213   2114   2115 ar
  2214   2115   2116 ar
  2215   2115   2121 ar
  2216   2116   2117 1
  2217   2116   2118 ar
  2218   2118   2119 ar
  2219   2119   2120 ar
  2220   2120   2121 ar
  2221   2133   2134 1
  2222   2133   2135 1
  2223   2133   2136 1
  2224   2136   2137 1
  2225   2137   2138 1
  2226   2138   2139 1
  2227   2138   2140 1
  2228   2139   2143 1
  2229   2140   2141 1
  2230   2140   2142 1
  2231   2142   2143 1
  2232   2143   2144 1
  2233   2144   2145 am
  2234   2144   2151 1
  2235   2145   2146 2
  2236   2145   2147 1
  2237   2147   2148 2
  2238   2148   2149 2
  2239   2148   2150 2
  2240   2150   2151 2
  2241   1931   1913 1
  2242   1932   1913 1
  2243   1933   1914 1
  2244   1934   1916 1
  2245   1935   1918 1
  2246   1936   1918 1
  2247   1937   1919 1
  2248   1938   1921 1
  2249   1939   1926 1
  2250   1962   1946 1
  2251   1963   1946 1
  2252   1964   1947 1
  2253   1965   1949 1
  2254   1966   1951 1
  2255   1967   1951 1
  2256   1968   1952 1
  2257   1969   1956 1
  2258   1970   1961 1
  2259   1996   1978 1
  2260   1997   1978 1
  2261   1998   1979 1
  2262   1999   1981 1
  2263   2000   1983 1
  2264   2001   1983 1
  2265   2002   1984 1
  2266   2003   1986 1
  2267   2004   1991 1
  2268   2028   2011 1
  2269   2029   2011 1
  2270   2030   2012 1
  2271   2031   2014 1
  2272   2032   2016 1
  2273   2033   2016 1
  2274   2034   2017 1
  2275   2035   2019 1
  2276   2036   2025 1
  2277   2059   2043 1
  2278   2060   2043 1
  2279   2061   2044 1
  2280   2062   2046 1
  2281   2063   2048 1
  2282   2064   2048 1
  2283   2065   2049 1
  2284   2066   2053 1
  2285   2067   2058 1
  2286   2090   2075 1
  2287   2091   2075 1
  2288   2092   2076 1
  2289   2093   2078 1
  2290   2094   2080 1
  2291   2095   2080 1
  2292   2096   2081 1
  2293   2097   2088 1
  2294   2098   2089 1
  2295   2122   2105 1
  2296   2123   2105 1
  2297   2124   2106 1
  2298   2125   2108 1
  2299   2126   2110 1
  2300   2127   2110 1
  2301   2128   2111 1
  2302   2129   2113 1
  2303   2130   2119 1
  2304   2152   2137 1
  2305   2153   2137 1
  2306   2154   2138 1
  2307   2155   2140 1
  2308   2156   2142 1
  2309   2157   2142 1
  2310   2158   2143 1
  2311   2159   2150 1
  2312   2160   2151 1
  2313   1940   1928 1
  2314   1941   1928 1
  2315   2005   1993 1
  2316   2006   1993 1
  2317   2099   2087 1
  2318   2100   2087 1
  2319   2161   2149 1
  2320   2162   2149 1
  2321   2037   2023 1
  2322   2038   2023 1
  2323   2131   2117 1
  2324   2132   2117 1
  2325   1971   1960 1
  2326   1972   1960 1
  2327   1973   1960 1
  2328   2068   2057 1
  2329   2069   2057 1
  2330   2070   2057 1
@<TRIPOS>MOLECULE
dna-seg-25-bp33
2100 2263 1 0 0
BIOPOLYMER
NO_CHARGES


@<TRIPOS>ATOM
      1 P          7.3449    -7.1451  2733.7004 P.3      835 DA      0.0000
      2 OP1        8.5998    -7.6508  2733.0334 O.co2    835 DA      0.0000
      3 OP2        6.6270    -8.1331  2734.5314 O.co2    835 DA      0.0000
      4 O5'        7.7400    -5.6935  2734.2313 O.3      835 DA      0.0000
      5 C5'        8.3161    -4.6816  2733.4069 C.3      835 DA      0.0000
      6 C4'        7.8596    -3.3307  2733.9293 C.3      835 DA      0.0000
      7 O4'        6.4630    -3.2429  2733.9574 O.3      835 DA      0.0000
      8 C3'        8.3634    -2.9022  2735.2966 C.3      835 DA      0.0000
      9 O3'        9.1823    -1.7356  2735.2187 O.3      835 DA      0.0000
     10 C2'        7.0824    -2.7454  2736.1253 C.3      835 DA      0.0000
     11 C1'        6.0168    -2.4900  2735.1315 C.3      835 DA      0.0000
     12 N9         4.6300    -2.9120  2735.3996 N.ar     835 DA      0.0000
     13 C8         4.0968    -4.1729  2735.5147 C.ar     835 DA      0.0000
     14 N7         2.7959    -4.1922  2735.6840 N.ar     835 DA      0.0000
     15 C5         2.4368    -2.8487  2735.6470 C.ar     835 DA      0.0000
     16 C6         1.1740    -2.2016  2735.7675 C.ar     835 DA      0.0000
     17 N6         0.0111    -2.8116  2735.9591 N.pl3    835 DA      0.0000
     18 N1         1.1975    -0.8328  2735.6693 N.ar     835 DA      0.0000
     19 C2         2.3753    -0.1698  2735.4802 C.ar     835 DA      0.0000
     20 N3         3.5839    -0.7098  2735.3724 N.ar     835 DA      0.0000
     21 C4         3.5450    -2.0543  2735.4642 C.ar     835 DA      0.0000
     22 H5'        7.9837    -4.8108  2732.3769 H        835 DA      0.0000
     23 H5''       9.4033    -4.7451  2733.4529 H        835 DA      0.0000
     24 H4'        8.2079    -2.5832  2733.2165 H        835 DA      0.0000
     25 H3'        8.9543    -3.7145  2735.7198 H        835 DA      0.0000
     26 H2'        6.8741    -3.6569  2736.6856 H        835 DA      0.0000
     27 H2''       7.1747    -1.8983  2736.8049 H        835 DA      0.0000
     28 H1'        6.0168    -1.4282  2734.8854 H        835 DA      0.0000
     29 H8         4.6963    -5.0701  2735.4699 H        835 DA      0.0000
     30 H2         2.3185     0.9065  2735.4111 H        835 DA      0.0000
     31 H61       -0.0498    -3.7656  2736.2853 H        835 DA      0.0000
     32 H62       -0.8423    -2.3047  2735.7723 H        835 DA      0.0000
     33 P         10.4566    -1.4098  2736.1750 P.3      836 DT      0.0000
     34 OP1       11.6214    -0.8339  2735.3776 O.co2    836 DT      0.0000
     35 OP2       10.7867    -2.5562  2736.9956 O.co2    836 DT      0.0000
     36 O5'        9.9268    -0.0824  2736.9887 O.3      836 DT      0.0000
     37 C5'        9.1888     0.8047  2736.0436 C.3      836 DT      0.0000
     38 C4'        7.9930     1.2763  2736.8313 C.3      836 DT      0.0000
     39 O4'        7.0129     0.2810  2737.0233 O.3      836 DT      0.0000
     40 C3'        8.3763     1.7428  2738.2479 C.3      836 DT      0.0000
     41 O3'        8.5019     3.1528  2738.2495 O.3      836 DT      0.0000
     42 C2'        7.2688     1.1959  2739.1451 C.3      836 DT      0.0000
     43 C1'        6.2233     0.8000  2738.1805 C.3      836 DT      0.0000
     44 N1         5.2554    -0.2308  2738.5203 N.am     836 DT      0.0000
     45 C2         3.9307     0.1720  2738.6582 C.2      836 DT      0.0000
     46 O2         3.6430     1.3587  2738.5702 O.2      836 DT      0.0000
     47 N3         2.9910    -0.7809  2738.9122 N.am     836 DT      0.0000
     48 C4         3.2979    -2.1061  2739.0323 C.2      836 DT      0.0000
     49 O4         2.3653    -2.9332  2739.2875 O.2      836 DT      0.0000
     50 C5         4.6658    -2.5002  2738.8608 C.2      836 DT      0.0000
     51 C7         5.0542    -3.9501  2738.9483 C.3      836 DT      0.0000
     52 C6         5.5884    -1.5566  2738.6050 C.2      836 DT      0.0000
     53 H5'        9.8094     1.6485  2735.7419 H        836 DT      0.0000
     54 H5''       8.8666     0.2402  2735.1686 H        836 DT      0.0000
     55 H4'        7.5377     2.1135  2736.3022 H        836 DT      0.0000
     56 H3'        9.3279     1.2937  2738.5322 H        836 DT      0.0000
     57 H2'        7.6178     0.3372  2739.7185 H        836 DT      0.0000
     58 H2''       6.8980     1.9747  2739.8115 H        836 DT      0.0000
     59 H1'        5.6851     1.6931  2737.8632 H        836 DT      0.0000
     60 H3         2.0277    -0.4956  2739.0159 H        836 DT      0.0000
     61 H6         6.6177    -1.8513  2738.4629 H        836 DT      0.0000
     62 H71        4.1703    -4.5513  2739.1613 H        836 DT      0.0000
     63 H72        5.4892    -4.2673  2738.0005 H        836 DT      0.0000
     64 H73        5.7849    -4.0831  2739.7461 H        836 DT      0.0000
     65 P          9.0680     4.0826  2739.3562 P.3      837 DT      0.0000
     66 OP1        9.5345     5.4288  2738.7441 O.co2    837 DT      0.0000
     67 OP2       10.1926     3.3439  2739.9861 O.co2    837 DT      0.0000
     68 O5'        7.7895     4.4812  2740.2385 O.3      837 DT      0.0000
     69 C5'        6.8780     5.3605  2739.5267 C.3      837 DT      0.0000
     70 C4'        5.5516     5.3219  2740.2029 C.3      837 DT      0.0000
     71 O4'        4.9321     4.0419  2740.1796 O.3      837 DT      0.0000
     72 C3'        5.5739     5.7759  2741.6695 C.3      837 DT      0.0000
     73 O3'        4.4768     6.6296  2741.9336 O.3      837 DT      0.0000
     74 C2'        5.3785     4.4292  2742.4059 C.3      837 DT      0.0000
     75 C1'        4.3020     3.8632  2741.5023 C.3      837 DT      0.0000
     76 N1         4.0518     2.4651  2741.8000 N.am     837 DT      0.0000
     77 C2         2.7391     2.0257  2741.8548 C.2      837 DT      0.0000
     78 O2         1.8307     2.8362  2741.6664 O.2      837 DT      0.0000
     79 N3         2.5102     0.7050  2742.1207 N.am     837 DT      0.0000
     80 C4         3.5236    -0.1797  2742.3277 C.2      837 DT      0.0000
     81 O4         3.2356    -1.3903  2742.5510 O.2      837 DT      0.0000
     82 C5         4.8704     0.2826  2742.2627 C.2      837 DT      0.0000
     83 C7         6.0417    -0.6321  2742.4726 C.3      837 DT      0.0000
     84 C6         5.0770     1.5828  2742.0015 C.2      837 DT      0.0000
     85 H5'        7.2663     6.3790  2739.5392 H        837 DT      0.0000
     86 H5''       6.7730     5.0218  2738.4960 H        837 DT      0.0000
     87 H4'        4.8961     6.0063  2739.6644 H        837 DT      0.0000
     88 H3'        6.5221     6.2451  2741.9320 H        837 DT      0.0000
     89 H2'        6.2829     3.8209  2742.4046 H        837 DT      0.0000
     90 H2''       5.0055     4.5821  2743.4186 H        837 DT      0.0000
     91 H1'        3.3846     4.4469  2741.5779 H        837 DT      0.0000
     92 H3         1.5569     0.3743  2742.1651 H        837 DT      0.0000
     93 H6         6.0926     1.9464  2741.9485 H        837 DT      0.0000
     94 H71        5.6835    -1.6422  2742.6715 H        837 DT      0.0000
     95 H72        6.6634    -0.6371  2741.5773 H        837 DT      0.0000
     96 H73        6.6292    -0.2813  2743.3210 H        837 DT      0.0000
     97 P          4.2744     8.0622  2742.5415 P.3      838 DC      0.0000
     98 OP1        3.8870     9.0670  2741.4736 O.co2    838 DC      0.0000
     99 OP2        5.5189     8.3532  2743.2765 O.co2    838 DC      0.0000
    100 O5'        2.9109     7.7179  2743.3675 O.3      838 DC      0.0000
    101 C5'        2.0292     7.1237  2742.3453 C.3      838 DC      0.0000
    102 C4'        0.7649     6.7077  2743.0418 C.3      838 DC      0.0000
    103 O4'        0.7142     5.3367  2743.2887 O.3      838 DC      0.0000
    104 C3'        0.4604     7.4584  2744.3332 C.3      838 DC      0.0000
    105 O3'       -0.8162     8.0787  2744.2536 O.3      838 DC      0.0000
    106 C2'        0.6697     6.3640  2745.3820 C.3      838 DC      0.0000
    107 C1'        0.3312     5.1058  2744.6856 C.3      838 DC      0.0000
    108 N1         1.1311     3.9226  2745.0177 N.am     838 DC      0.0000
    109 C2         0.4142     2.7557  2745.2735 C.2      838 DC      0.0000
    110 O2        -0.8206     2.7479  2745.2780 O.2      838 DC      0.0000
    111 N3         1.1335     1.6187  2745.5473 N.2      838 DC      0.0000
    112 C4         2.4974     1.6191  2745.5374 C.2      838 DC      0.0000
    113 N4         3.1024     0.4692  2745.8143 N.pl3    838 DC      0.0000
    114 C5         3.2107     2.8058  2745.2594 C.2      838 DC      0.0000
    115 C6         2.4898     3.9147  2744.9946 C.2      838 DC      0.0000
    116 H5'        1.8056     7.8583  2741.5716 H        838 DC      0.0000
    117 H5''       2.5113     6.2529  2741.9011 H        838 DC      0.0000
    118 H4'       -0.0528     6.9287  2742.3558 H        838 DC      0.0000
    119 H3'        1.2166     8.2303  2744.4765 H        838 DC      0.0000
    120 H2'        1.7059     6.3491  2745.7199 H        838 DC      0.0000
    121 H2''      -0.0004     6.5189  2746.2275 H        838 DC      0.0000
    122 H1'       -0.7343     4.8905  2744.7665 H        838 DC      0.0000
    123 H5         4.2905     2.8248  2745.2588 H        838 DC      0.0000
    124 H6         3.0114     4.8297  2744.7556 H        838 DC      0.0000
    125 H41        2.5538    -0.3550  2746.0135 H        838 DC      0.0000
    126 H42        4.1111     0.4193  2745.8256 H        838 DC      0.0000
    127 P         -1.3661     9.2722  2745.2056 P.3      839 DA      0.0000
    128 OP1       -2.4176    10.0236  2744.4119 O.co2    839 DA      0.0000
    129 OP2       -0.2206    10.1384  2745.5511 O.co2    839 DA      0.0000
    130 O5'       -2.0021     8.4840  2746.5026 O.3      839 DA      0.0000
    131 C5'       -2.9743     7.4348  2746.2074 C.3      839 DA      0.0000
    132 C4'       -3.3904     6.7406  2747.4627 C.3      839 DA      0.0000
    133 O4'       -2.7460     5.4863  2747.7048 O.3      839 DA      0.0000
    134 C3'       -3.1129     7.5050  2748.7679 C.3      839 DA      0.0000
    135 O3'       -3.9434     6.9640  2749.7978 O.3      839 DA      0.0000
    136 C2'       -1.6394     7.1054  2748.9825 C.3      839 DA      0.0000
    137 C1'       -1.8392     5.5971  2748.7992 C.3      839 DA      0.0000
    138 N9        -0.5414     4.9504  2748.7049 N.ar     839 DA      0.0000
    139 C8         0.7127     5.4830  2748.5891 C.ar     839 DA      0.0000
    140 N7         1.6945     4.5995  2748.5705 N.ar     839 DA      0.0000
    141 C5         1.0299     3.3860  2748.6780 C.ar     839 DA      0.0000
    142 C6         1.4958     2.0485  2748.7125 C.ar     839 DA      0.0000
    143 N6         2.7657     1.6952  2748.6273 N.pl3    839 DA      0.0000
    144 N1         0.5402     1.0821  2748.8451 N.ar     839 DA      0.0000
    145 C2        -0.7886     1.4035  2748.9253 C.ar     839 DA      0.0000
    146 N3        -1.3016     2.6313  2748.8954 N.ar     839 DA      0.0000
    147 C4        -0.3389     3.5777  2748.7724 C.ar     839 DA      0.0000
    148 H5'       -3.8507     7.8799  2745.7362 H        839 DA      0.0000
    149 H5''      -2.5276     6.7106  2745.5261 H        839 DA      0.0000
    150 H4'       -4.4635     6.5588  2747.4038 H        839 DA      0.0000
    151 H3'       -3.2395     8.5817  2748.6542 H        839 DA      0.0000
    152 H2'       -0.9756     7.5341  2748.2317 H        839 DA      0.0000
    153 H2''      -1.3050     7.3431  2749.9924 H        839 DA      0.0000
    154 H1'       -2.3398     5.2151  2749.6889 H        839 DA      0.0000
    155 H8         0.8875     6.5464  2748.5181 H        839 DA      0.0000
    156 H2        -1.4854     0.5840  2749.0217 H        839 DA      0.0000
    157 H61        3.2716     0.8398  2748.8073 H        839 DA      0.0000
    158 H62        3.3628     2.4466  2748.3125 H        839 DA      0.0000
    159 P         -5.4802     7.3871  2749.9383 P.3      840 DC      0.0000
    160 OP1       -6.0415     7.9836  2748.6932 O.co2    840 DC      0.0000
    161 OP2       -5.4383     8.3598  2751.0812 O.co2    840 DC      0.0000
    162 O5'       -6.2130     6.0096  2750.2215 O.3      840 DC      0.0000
    163 C5'       -6.5678     5.1031  2749.1337 C.3      840 DC      0.0000
    164 C4'       -6.5173     3.7429  2749.8387 C.3      840 DC      0.0000
    165 O4'       -5.1687     3.4811  2750.1507 O.3      840 DC      0.0000
    166 C3'       -7.2998     3.6989  2751.1486 C.3      840 DC      0.0000
    167 O3'       -8.2216     2.5874  2751.2165 O.3      840 DC      0.0000
    168 C2'       -6.2106     3.6517  2752.2308 C.3      840 DC      0.0000
    169 C1'       -5.1193     2.9257  2751.5546 C.3      840 DC      0.0000
    170 N1        -3.7200     3.1513  2751.9074 N.am     840 DC      0.0000
    171 C2        -2.9121     2.0161  2751.8806 C.2      840 DC      0.0000
    172 O2        -3.3554     0.8935  2751.6736 O.2      840 DC      0.0000
    173 N3        -1.5866     2.1863  2752.1337 N.2      840 DC      0.0000
    174 C4        -1.0409     3.4043  2752.3670 C.2      840 DC      0.0000
    175 N4         0.2701     3.4433  2752.5980 N.pl3    840 DC      0.0000
    176 C5        -1.8735     4.5571  2752.3736 C.2      840 DC      0.0000
    177 C6        -3.1804     4.3814  2752.1242 C.2      840 DC      0.0000
    178 H5'       -7.5654     5.3149  2748.7489 H        840 DC      0.0000
    179 H5''      -5.8279     5.1511  2748.3347 H        840 DC      0.0000
    180 H4'       -6.8911     2.9709  2749.1660 H        840 DC      0.0000
    181 H3'       -7.8606     4.6276  2751.2545 H        840 DC      0.0000
    182 H2'       -5.8971     4.6555  2752.5178 H        840 DC      0.0000
    183 H2''      -6.5591     3.0957  2753.1011 H        840 DC      0.0000
    184 H1'       -5.3336     1.8571  2751.5414 H        840 DC      0.0000
    185 H5        -1.4687     5.5385  2752.5721 H        840 DC      0.0000
    186 H6        -3.8262     5.2465  2752.0944 H        840 DC      0.0000
    187 H41        0.8104     2.5901  2752.5869 H        840 DC      0.0000
    188 H42        0.7240     4.3262  2752.7841 H        840 DC      0.0000
    189 P          7.5858    -3.8081  2754.1760 P.3      840 DG      0.0000
    190 OP1        8.9416    -4.4138  2754.3548 O.co2    840 DG      0.0000
    191 OP2        7.5482    -2.7398  2753.0912 O.co2    840 DG      0.0000
    192 O5'        6.4760    -5.0059  2753.9688 O.3      840 DG      0.0000
    193 C5'        5.5550    -5.3235  2755.0645 C.3      840 DG      0.0000
    194 C4'        4.2031    -5.6422  2754.4303 C.3      840 DG      0.0000
    195 O4'        3.3872    -4.5067  2754.3344 O.3      840 DG      0.0000
    196 C3'        4.2879    -6.2295  2753.0239 C.3      840 DG      0.0000
    197 O3'        3.3310    -7.2807  2752.7569 O.3      840 DG      0.0000
    198 C2'        4.0478    -5.0057  2752.1216 C.3      840 DG      0.0000
    199 C1'        3.0246    -4.2417  2752.9455 C.3      840 DG      0.0000
    200 N9         3.0963    -2.7962  2752.6722 N.ar     840 DG      0.0000
    201 C8         4.2203    -2.0204  2752.5155 C.ar     840 DG      0.0000
    202 N7         3.9675    -0.7573  2752.2971 N.ar     840 DG      0.0000
    203 C5         2.5794    -0.6902  2752.3219 C.ar     840 DG      0.0000
    204 C6         1.6907     0.4068  2752.1654 C.2      840 DG      0.0000
    205 O6         2.0029     1.5898  2751.9686 O.2      840 DG      0.0000
    206 N1         0.3614     0.0740  2752.2523 N.am     840 DG      0.0000
    207 C2        -0.0628    -1.1944  2752.4730 C.2      840 DG      0.0000
    208 N2        -1.3805    -1.3651  2752.5363 N.pl3    840 DG      0.0000
    209 N3         0.7305    -2.2611  2752.6307 N.2      840 DG      0.0000
    210 C4         2.0346    -1.9339  2752.5474 C.ar     840 DG      0.0000
    211 H5'        5.9198    -6.1860  2755.6223 H        840 DG      0.0000
    212 H5''       5.4596    -4.4651  2755.7295 H        840 DG      0.0000
    213 H4'        3.6961    -6.3673  2755.0670 H        840 DG      0.0000
    214 H3'        5.2954    -6.6093  2752.8534 H        840 DG      0.0000
    215 H2'        4.9605    -4.4273  2751.9790 H        840 DG      0.0000
    216 H2''       3.6262    -5.3076  2751.1629 H        840 DG      0.0000
    217 H1'        2.0211    -4.6147  2752.7402 H        840 DG      0.0000
    218 H8         5.2225    -2.4193  2752.5682 H        840 DG      0.0000
    219 H1        -0.3285     0.8041  2752.1475 H        840 DG      0.0000
    220 H21       -1.9982    -0.5744  2752.4213 H        840 DG      0.0000
    221 H22       -1.7632    -2.2854  2752.6995 H        840 DG      0.0000
    222 P          2.8515    -7.4115  2751.2335 P.3      839 DT      0.0000
    223 OP1        2.4468    -8.8073  2750.8426 O.co2    839 DT      0.0000
    224 OP2        4.0914    -6.9955  2750.5329 O.co2    839 DT      0.0000
    225 O5'        1.6004    -6.4192  2751.1026 O.3      839 DT      0.0000
    226 C5'        0.2781    -6.9866  2751.3702 C.3      839 DT      0.0000
    227 C4'       -0.7520    -6.1769  2750.6131 C.3      839 DT      0.0000
    228 O4'       -0.4544    -4.7923  2750.5859 O.3      839 DT      0.0000
    229 C3'       -0.8901    -6.5986  2749.1584 C.3      839 DT      0.0000
    230 O3'       -2.2464    -6.5679  2748.6633 O.3      839 DT      0.0000
    231 C2'       -0.0039    -5.6086  2748.4356 C.3      839 DT      0.0000
    232 C1'       -0.3519    -4.3504  2749.2137 C.3      839 DT      0.0000
    233 N1         0.7862    -3.4303  2749.0624 N.am     839 DT      0.0000
    234 C2         0.4980    -2.0735  2749.1692 C.2      839 DT      0.0000
    235 O2        -0.6531    -1.6956  2749.3589 O.2      839 DT      0.0000
    236 N3         1.5441    -1.2019  2749.0490 N.am     839 DT      0.0000
    237 C4         2.8190    -1.6314  2748.8314 C.2      839 DT      0.0000
    238 O4         3.7290    -0.7431  2748.7338 O.2      839 DT      0.0000
    239 C5         3.0830    -3.0268  2748.7250 C.2      839 DT      0.0000
    240 C7         4.4858    -3.5119  2748.4961 C.3      839 DT      0.0000
    241 C6         2.0575    -3.8735  2748.8468 C.2      839 DT      0.0000
    242 H5'        0.2485    -8.0239  2751.0365 H        839 DT      0.0000
    243 H5''       0.0684    -6.9393  2752.4388 H        839 DT      0.0000
    244 H4'       -1.7175    -6.3098  2751.1011 H        839 DT      0.0000
    245 H3'       -0.4842    -7.6025  2749.0344 H        839 DT      0.0000
    246 H2'        1.0516    -5.8648  2748.5271 H        839 DT      0.0000
    247 H2''      -0.2944    -5.5145  2747.3892 H        839 DT      0.0000
    248 H1'       -1.2821    -3.9032  2748.8630 H        839 DT      0.0000
    249 H3         1.3670    -0.2104  2749.1237 H        839 DT      0.0000
    250 H6         2.2395    -4.9355  2748.7726 H        839 DT      0.0000
    251 H71        5.1594    -2.6578  2748.4274 H        839 DT      0.0000
    252 H72        4.7900    -4.1484  2749.3270 H        839 DT      0.0000
    253 H73        4.5261    -4.0821  2747.5679 H        839 DT      0.0000
    254 P         -2.5149    -8.0089  2747.8849 P.3      838 DG      0.0000
    255 OP1       -3.1456    -9.0459  2748.7562 O.co2    838 DG      0.0000
    256 OP2       -1.1176    -8.3024  2747.4794 O.co2    838 DG      0.0000
    257 O5'       -3.6024    -7.5574  2746.8041 O.3      838 DG      0.0000
    258 C5'       -4.9782    -7.3819  2747.2276 C.3      838 DG      0.0000
    259 C4'       -5.3467    -5.9730  2746.7799 C.3      838 DG      0.0000
    260 O4'       -4.2742    -5.0928  2747.0506 O.3      838 DG      0.0000
    261 C3'       -5.6761    -5.8502  2745.2921 C.3      838 DG      0.0000
    262 O3'       -6.9624    -5.2951  2745.0836 O.3      838 DG      0.0000
    263 C2'       -4.5189    -5.0541  2744.7154 C.3      838 DG      0.0000
    264 C1'       -4.0444    -4.2483  2745.9016 C.3      838 DG      0.0000
    265 N9        -2.6209    -3.9232  2745.7780 N.ar     838 DG      0.0000
    266 C8        -1.5666    -4.7772  2745.6191 C.ar     838 DG      0.0000
    267 N7        -0.4057    -4.1736  2745.5411 N.ar     838 DG      0.0000
    268 C5        -0.7165    -2.8239  2745.6786 C.ar     838 DG      0.0000
    269 C6         0.0977    -1.6607  2745.6881 C.2      838 DG      0.0000
    270 O6         1.3195    -1.6110  2745.5890 O.2      838 DG      0.0000
    271 N1        -0.5876    -0.4885  2745.8370 N.am     838 DG      0.0000
    272 C2        -1.9546    -0.4537  2745.9699 C.2      838 DG      0.0000
    273 N2        -2.4959     0.7572  2746.1056 N.pl3    838 DG      0.0000
    274 N3        -2.7772    -1.5076  2745.9742 N.2      838 DG      0.0000
    275 C4        -2.0839    -2.6619  2745.8235 C.ar     838 DG      0.0000
    276 H5'       -5.6240    -8.1180  2746.7488 H        838 DG      0.0000
    277 H5''      -5.0522    -7.4642  2748.3119 H        838 DG      0.0000
    278 H4'       -6.2141    -5.6454  2747.3529 H        838 DG      0.0000
    279 H3'       -5.6582    -6.8479  2744.8536 H        838 DG      0.0000
    280 H2'       -3.7324    -5.7139  2744.3491 H        838 DG      0.0000
    281 H2''      -4.8669    -4.3952  2743.9199 H        838 DG      0.0000
    282 H1'       -4.6298    -3.3329  2745.9886 H        838 DG      0.0000
    283 H8        -1.6791    -5.8499  2745.5630 H        838 DG      0.0000
    284 H1        -0.0729     0.3804  2745.8499 H        838 DG      0.0000
    285 H21       -1.9058     1.5769  2746.1065 H        838 DG      0.0000
    286 H22       -3.4959     0.8548  2746.2074 H        838 DG      0.0000
    287 P         -7.5411    -4.1069  2744.2173 P.3      837 DA      0.0000
    288 OP1       -8.6346    -3.3675  2744.9987 O.co2    837 DA      0.0000
    289 OP2       -8.1055    -4.7426  2743.0246 O.co2    837 DA      0.0000
    290 O5'       -6.3249    -3.0370  2744.0425 O.3      837 DA      0.0000
    291 C5'       -6.2346    -2.1228  2745.1990 C.3      837 DA      0.0000
    292 C4'       -6.4963    -0.7339  2744.6712 C.3      837 DA      0.0000
    293 O4'       -5.3119    -0.0113  2744.4489 O.3      837 DA      0.0000
    294 C3'       -7.2300    -0.7344  2743.3307 C.3      837 DA      0.0000
    295 O3'       -8.2192     0.2642  2743.2555 O.3      837 DA      0.0000
    296 C2'       -6.0865    -0.6717  2742.3341 C.3      837 DA      0.0000
    297 C1'       -4.9243    -0.0512  2743.0579 C.3      837 DA      0.0000
    298 N9        -3.6786    -0.8039  2742.8324 N.ar     837 DA      0.0000
    299 C8        -3.5067    -2.1586  2742.6461 C.ar     837 DA      0.0000
    300 N7        -2.2609    -2.5245  2742.4502 N.ar     837 DA      0.0000
    301 C5        -1.5606    -1.3278  2742.5370 C.ar     837 DA      0.0000
    302 C6        -0.1793    -1.0422  2742.4314 C.ar     837 DA      0.0000
    303 N6         0.7473    -1.9600  2742.2189 N.pl3    837 DA      0.0000
    304 N1         0.1724     0.2674  2742.5551 N.ar     837 DA      0.0000
    305 C2        -0.7633     1.2367  2742.7796 C.ar     837 DA      0.0000
    306 N3        -2.0743     1.0350  2742.8955 N.ar     837 DA      0.0000
    307 C4        -2.4116    -0.2703  2742.7594 C.ar     837 DA      0.0000
    308 H5'       -6.9818    -2.3878  2745.9470 H        837 DA      0.0000
    309 H5''      -5.2372    -2.1729  2745.6356 H        837 DA      0.0000
    310 H4'       -7.1019    -0.1937  2745.3988 H        837 DA      0.0000
    311 H3'       -7.7205    -1.7012  2743.2176 H        837 DA      0.0000
    312 H2'       -6.3669    -0.0592  2741.4772 H        837 DA      0.0000
    313 H2''      -5.8253    -1.6770  2742.0036 H        837 DA      0.0000
    314 H1'       -4.7897     0.9694  2742.6998 H        837 DA      0.0000
    315 H8        -4.3277    -2.8602  2742.6600 H        837 DA      0.0000
    316 H2        -0.4098     2.2531  2742.8709 H        837 DA      0.0000
    317 H61        1.6974    -1.8260  2742.5343 H        837 DA      0.0000
    318 H62        0.5012    -2.8103  2741.7327 H        837 DA      0.0000
    319 P         -8.6604     1.2123  2742.0709 P.3      836 DA      0.0000
    320 OP1       -9.6179     2.3241  2742.5908 O.co2    836 DA      0.0000
    321 OP2       -9.4145     0.3189  2741.1372 O.co2    836 DA      0.0000
    322 O5'       -7.3727     1.9680  2741.5682 O.3      836 DA      0.0000
    323 C5'       -7.1003     3.3093  2742.0240 C.3      836 DA      0.0000
    324 C4'       -5.8403     3.7670  2741.3221 C.3      836 DA      0.0000
    325 O4'       -4.8573     2.7786  2741.2014 O.3      836 DA      0.0000
    326 C3'       -6.0890     4.3073  2739.9146 C.3      836 DA      0.0000
    327 O3'       -5.7936     5.7164  2739.8831 O.3      836 DA      0.0000
    328 C2'       -5.2769     3.3737  2739.0150 C.3      836 DA      0.0000
    329 C1'       -4.1705     2.9091  2739.9128 C.3      836 DA      0.0000
    330 N9        -3.5945     1.6023  2739.6132 N.ar     836 DA      0.0000
    331 C8        -4.2283     0.3925  2739.4185 C.ar     836 DA      0.0000
    332 N7        -3.4044    -0.6107  2739.2130 N.ar     836 DA      0.0000
    333 C5        -2.1496    -0.0382  2739.2876 C.ar     836 DA      0.0000
    334 C6        -0.8536    -0.5850  2739.1541 C.ar     836 DA      0.0000
    335 N6        -0.6135    -1.8699  2738.9109 N.pl3    836 DA      0.0000
    336 N1         0.1759     0.3093  2739.3029 N.ar     836 DA      0.0000
    337 C2        -0.0364     1.6152  2739.5554 C.ar     836 DA      0.0000
    338 N3        -1.2295     2.2012  2739.6943 N.ar     836 DA      0.0000
    339 C4        -2.2418     1.3176  2739.5471 C.ar     836 DA      0.0000
    340 H5'       -7.9309     3.9673  2741.7689 H        836 DA      0.0000
    341 H5''      -6.9447     3.3099  2743.1028 H        836 DA      0.0000
    342 H4'       -5.4152     4.5788  2741.9122 H        836 DA      0.0000
    343 H3'       -7.1450     4.1745  2739.6796 H        836 DA      0.0000
    344 H2'       -5.8830     2.5339  2738.6751 H        836 DA      0.0000
    345 H2''      -4.8725     3.9213  2738.1637 H        836 DA      0.0000
    346 H1'       -3.3875     3.6649  2739.9739 H        836 DA      0.0000
    347 H8        -5.3023     0.2802  2739.4334 H        836 DA      0.0000
    348 H2         0.8353     2.2451  2739.6545 H        836 DA      0.0000
    349 H61        0.2937    -2.2025  2739.2049 H        836 DA      0.0000
    350 H62       -1.2907    -2.4711  2738.4636 H        836 DA      0.0000
    351 P         -5.9666     6.5189  2738.4982 P.3      835 DT      0.0000
    352 OP1       -5.9648     8.0155  2738.5563 O.co2    835 DT      0.0000
    353 OP2       -7.2266     5.8989  2737.9855 O.co2    835 DT      0.0000
    354 O5'       -4.5215     6.0771  2737.7950 O.3      835 DT      0.0000
    355 C5'       -3.4709     6.1226  2738.8073 C.3      835 DT      0.0000
    356 C4'       -2.1488     6.2690  2738.1244 C.3      835 DT      0.0000
    357 O4'       -1.4765     5.0585  2737.9440 O.3      835 DT      0.0000
    358 C3'       -2.2227     6.9432  2736.7631 C.3      835 DT      0.0000
    359 O3'       -1.1036     7.7973  2736.4958 O.3      835 DT      0.0000
    360 C2'       -2.3225     5.6999  2735.8698 C.3      835 DT      0.0000
    361 C1'       -1.3047     4.7802  2736.5098 C.3      835 DT      0.0000
    362 N1        -1.6446     3.3634  2736.2798 N.am     835 DT      0.0000
    363 C2        -0.5978     2.4666  2736.1582 C.2      835 DT      0.0000
    364 O2         0.5737     2.8462  2736.1950 O.2      835 DT      0.0000
    365 N3        -0.9024     1.1430  2735.9908 N.am     835 DT      0.0000
    366 C4        -2.1878     0.7013  2735.9423 C.2      835 DT      0.0000
    367 O4        -2.3772    -0.5379  2735.7568 O.2      835 DT      0.0000
    368 C5        -3.2495     1.6372  2736.0907 C.2      835 DT      0.0000
    369 C7        -4.6889     1.1833  2736.0386 C.3      835 DT      0.0000
    370 C6        -2.9354     2.9254  2736.2637 C.2      835 DT      0.0000
    371 H5'       -3.6370     6.9725  2739.4694 H        835 DT      0.0000
    372 H5''      -3.4823     5.1998  2739.3874 H        835 DT      0.0000
    373 H4'       -1.5233     6.8944  2738.7614 H        835 DT      0.0000
    374 H3'       -3.1456     7.5187  2736.6911 H        835 DT      0.0000
    375 H2'       -3.3228     5.2680  2735.9004 H        835 DT      0.0000
    376 H2''      -2.0366     5.9376  2734.8452 H        835 DT      0.0000
    377 H1'       -0.2925     5.0086  2736.1759 H        835 DT      0.0000
    378 H3        -0.1506     0.4745  2735.9007 H        835 DT      0.0000
    379 H6        -3.7315     3.6433  2736.3951 H        835 DT      0.0000
    380 H71       -5.0821     1.3351  2735.0334 H        835 DT      0.0000
    381 H72       -5.2780     1.7619  2736.7502 H        835 DT      0.0000
    382 H73       -4.7458     0.1254  2736.2951 H        835 DT      0.0000
    383 P         -9.9659     1.0309  2756.2175 P.3      841 DG      0.0000
    384 OP1      -11.1917     1.8670  2756.2160 O.co2    841 DG      0.0000
    385 OP2       -9.0238     1.6276  2757.2732 O.co2    841 DG      0.0000
    386 O5'      -10.1659    -0.5375  2756.3959 O.3      841 DG      0.0000
    387 C5'      -10.1277    -1.5777  2755.3959 C.3      841 DG      0.0000
    388 C4'       -9.2141    -2.6778  2755.8947 C.3      841 DG      0.0000
    389 O4'       -7.8797    -2.4902  2755.4756 O.3      841 DG      0.0000
    390 C3'       -9.1664    -2.9372  2757.3869 C.3      841 DG      0.0000
    391 O3'       -9.4435    -4.3291  2757.6989 O.3      841 DG      0.0000
    392 C2'       -7.7790    -2.4922  2757.8088 C.3      841 DG      0.0000
    393 C1'       -6.9573    -2.6564  2756.5532 C.3      841 DG      0.0000
    394 N9        -5.8737    -1.6572  2756.5241 N.ar     841 DG      0.0000
    395 C8        -5.9302    -0.3027  2756.7530 C.ar     841 DG      0.0000
    396 N7        -4.7689     0.3055  2756.6633 N.ar     841 DG      0.0000
    397 C5        -3.8817    -0.7198  2756.3463 C.ar     841 DG      0.0000
    398 C6        -2.4831    -0.7215  2756.1204 C.2      841 DG      0.0000
    399 O6        -1.7063     0.2337  2756.1416 O.2      841 DG      0.0000
    400 N1        -1.9402    -1.9452  2755.8389 N.am     841 DG      0.0000
    401 C2        -2.6414    -3.0318  2755.7782 C.2      841 DG      0.0000
    402 N2        -1.8984    -4.0262  2755.4814 N.pl3    841 DG      0.0000
    403 N3        -4.0207    -3.1323  2755.9869 N.2      841 DG      0.0000
    404 C4        -4.5457    -1.9291  2756.2595 C.ar     841 DG      0.0000
    405 H5'      -11.1305    -1.9743  2755.2372 H        841 DG      0.0000
    406 H5''      -9.7400    -1.1741  2754.4606 H        841 DG      0.0000
    407 H4'       -9.5584    -3.6016  2755.4300 H        841 DG      0.0000
    408 H3'       -9.9069    -2.3081  2757.8809 H        841 DG      0.0000
    409 H2'       -7.7865    -1.4525  2758.1358 H        841 DG      0.0000
    410 H2''      -7.3970    -3.1370  2758.6003 H        841 DG      0.0000
    411 H1'       -6.5323    -3.6596  2756.5212 H        841 DG      0.0000
    412 H8        -6.8484     0.2159  2756.9861 H        841 DG      0.0000
    413 H1        -0.9460    -2.0037  2755.6705 H        841 DG      0.0000
    414 H21       -0.9079    -3.8912  2755.3371 H        841 DG      0.0000
    415 H22       -2.3008    -4.9481  2755.3910 H        841 DG      0.0000
    416 P         -9.1866    -4.9503  2759.1275 P.3      842 DT      0.0000
    417 OP1      -10.2344    -5.9046  2759.6391 O.co2    842 DT      0.0000
    418 OP2       -9.2963    -3.7198  2760.0461 O.co2    842 DT      0.0000
    419 O5'       -7.7293    -5.4778  2759.1560 O.3      842 DT      0.0000
    420 C5'       -7.3906    -6.8845  2759.0121 C.3      842 DT      0.0000
    421 C4'       -5.8778    -6.9207  2759.0696 C.3      842 DT      0.0000
    422 O4'       -5.3036    -5.6619  2758.7944 O.3      842 DT      0.0000
    423 C3'       -5.2665    -7.3408  2760.3823 C.3      842 DT      0.0000
    424 O3'       -4.5754    -8.5845  2760.1941 O.3      842 DT      0.0000
    425 C2'       -4.3062    -6.2182  2760.7745 C.3      842 DT      0.0000
    426 C1'       -3.9884    -5.6360  2759.4218 C.3      842 DT      0.0000
    427 N1        -3.5781    -4.2350  2759.5184 N.am     842 DT      0.0000
    428 C2        -2.2540    -3.9510  2759.3205 C.2      842 DT      0.0000
    429 O2        -1.4207    -4.8221  2759.0823 O.2      842 DT      0.0000
    430 N3        -1.8795    -2.6368  2759.4015 N.am     842 DT      0.0000
    431 C4        -2.7541    -1.6377  2759.6574 C.2      842 DT      0.0000
    432 O4        -2.2619    -0.4799  2759.7027 O.2      842 DT      0.0000
    433 C5        -4.1363    -1.9538  2759.8571 C.2      842 DT      0.0000
    434 C7        -5.1356    -0.8789  2760.1370 C.3      842 DT      0.0000
    435 C6        -4.4937    -3.2419  2759.7757 C.2      842 DT      0.0000
    436 H5'       -7.8206    -7.4689  2759.8255 H        842 DT      0.0000
    437 H5''      -7.7410    -7.2607  2758.0509 H        842 DT      0.0000
    438 H4'       -5.5331    -7.6169  2758.3050 H        842 DT      0.0000
    439 H3'       -6.0426    -7.4530  2761.1394 H        842 DT      0.0000
    440 H2'       -4.7877    -5.4865  2761.4233 H        842 DT      0.0000
    441 H2''      -3.4089    -6.6216  2761.2437 H        842 DT      0.0000
    442 H1'       -3.2624    -6.2390  2758.8765 H        842 DT      0.0000
    443 H3        -0.9066    -2.4030  2759.2641 H        842 DT      0.0000
    444 H6        -5.5309    -3.5083  2759.9160 H        842 DT      0.0000
    445 H71       -5.7035    -0.6652  2759.2315 H        842 DT      0.0000
    446 H72       -4.6172     0.0232  2760.4618 H        842 DT      0.0000
    447 H73       -5.8152    -1.2101  2760.9224 H        842 DT      0.0000
    448 P         -4.6980    -9.5809  2761.4740 P.3      843 DG      0.0000
    449 OP1       -4.7845   -10.9232  2760.7590 O.co2    843 DG      0.0000
    450 OP2       -5.8899    -9.2345  2762.2276 O.co2    843 DG      0.0000
    451 O5'       -3.2213    -9.2459  2762.0836 O.3      843 DG      0.0000
    452 C5'       -2.2247    -9.2715  2760.9930 C.3      843 DG      0.0000
    453 C4'       -0.9654    -8.6431  2761.5130 C.3      843 DG      0.0000
    454 O4'       -0.8354    -7.2583  2761.3324 O.3      843 DG      0.0000
    455 C3'       -0.7461    -8.9173  2763.0210 C.3      843 DG      0.0000
    456 O3'        0.5681    -9.5045  2763.1799 O.3      843 DG      0.0000
    457 C2'       -0.9643    -7.5689  2763.6736 C.3      843 DG      0.0000
    458 C1'       -0.4679    -6.6165  2762.5921 C.3      843 DG      0.0000
    459 N9        -1.0345    -5.2738  2762.7616 N.ar     843 DG      0.0000
    460 C8        -2.3122    -4.9206  2763.0978 C.ar     843 DG      0.0000
    461 N7        -2.5181    -3.6247  2763.1835 N.ar     843 DG      0.0000
    462 C5        -1.2752    -3.0891  2762.8535 C.ar     843 DG      0.0000
    463 C6        -0.8393    -1.7364  2762.7592 C.2      843 DG      0.0000
    464 O6        -1.4985    -0.7039  2762.9515 O.2      843 DG      0.0000
    465 N1         0.4872    -1.5885  2762.4241 N.am     843 DG      0.0000
    466 C2         1.2976    -2.6595  2762.2004 C.2      843 DG      0.0000
    467 N2         2.5578    -2.3268  2761.8916 N.pl3    843 DG      0.0000
    468 N3         0.9375    -3.9390  2762.2714 N.2      843 DG      0.0000
    469 C4        -0.3580    -4.0858  2762.5980 C.ar     843 DG      0.0000
    470 H5'       -2.0294   -10.3009  2760.6925 H        843 DG      0.0000
    471 H5''      -2.5960    -8.7026  2760.1406 H        843 DG      0.0000
    472 H4'       -0.1360    -9.1106  2760.9824 H        843 DG      0.0000
    473 H3'       -1.5017    -9.6183  2763.3758 H        843 DG      0.0000
    474 H2'       -2.0180    -7.4017  2763.8966 H        843 DG      0.0000
    475 H2''      -0.3601    -7.4754  2764.5760 H        843 DG      0.0000
    476 H1'        0.6185    -6.5511  2762.6510 H        843 DG      0.0000
    477 H8        -3.0900    -5.6478  2763.2784 H        843 DG      0.0000
    478 H1         0.8710    -0.6579  2762.3418 H        843 DG      0.0000
    479 H21        2.8255    -1.3542  2761.8413 H        843 DG      0.0000
    480 H22        3.2404    -3.0486  2761.7089 H        843 DG      0.0000
    481 P          1.0741   -10.0144  2764.5683 P.3      844 DA      0.0000
    482 OP1        0.7562   -11.4306  2764.9237 O.co2    844 DA      0.0000
    483 OP2        0.1731    -9.0872  2765.4641 O.co2    844 DA      0.0000
    484 O5'        2.5441    -9.4741  2764.8174 O.3      844 DA      0.0000
    485 C5'        3.4594    -9.0704  2763.7884 C.3      844 DA      0.0000
    486 C4'        4.0374    -7.7468  2764.2627 C.3      844 DA      0.0000
    487 O4'        3.0668    -6.7259  2764.1723 O.3      844 DA      0.0000
    488 C3'        4.5797    -7.7188  2765.6918 C.3      844 DA      0.0000
    489 O3'        5.8806    -7.0975  2765.7440 O.3      844 DA      0.0000
    490 C2'        3.5014    -6.9138  2766.4272 C.3      844 DA      0.0000
    491 C1'        3.1888    -5.8866  2765.3496 C.3      844 DA      0.0000
    492 N9         1.9409    -5.1512  2765.5780 N.ar     844 DA      0.0000
    493 C8         0.6746    -5.6160  2765.7938 C.ar     844 DA      0.0000
    494 N7        -0.2202    -4.6675  2765.9587 N.ar     844 DA      0.0000
    495 C5         0.5078    -3.4954  2765.8185 C.ar     844 DA      0.0000
    496 C6         0.1167    -2.1395  2765.8665 C.ar     844 DA      0.0000
    497 N6        -1.1321    -1.7213  2766.0863 N.pl3    844 DA      0.0000
    498 N1         1.1235    -1.2358  2765.6767 N.ar     844 DA      0.0000
    499 C2         2.3969    -1.6382  2765.4590 C.ar     844 DA      0.0000
    500 N3         2.8378    -2.8943  2765.4007 N.ar     844 DA      0.0000
    501 C4         1.8336    -3.7700  2765.5875 C.ar     844 DA      0.0000
    502 H5'        2.9358    -8.9407  2762.8412 H        844 DA      0.0000
    503 H5''       4.2531    -9.8097  2763.6806 H        844 DA      0.0000
    504 H4'        4.8564    -7.4846  2763.5929 H        844 DA      0.0000
    505 H3'        4.6312    -8.7309  2766.0932 H        844 DA      0.0000
    506 H2'        2.6326    -7.5246  2766.6727 H        844 DA      0.0000
    507 H2''       3.9086    -6.4356  2767.3181 H        844 DA      0.0000
    508 H1'        4.0216    -5.1927  2765.2351 H        844 DA      0.0000
    509 H8         0.4309    -6.6677  2765.8259 H        844 DA      0.0000
    510 H2         3.1326    -0.8602  2765.3176 H        844 DA      0.0000
    511 H61       -1.9594    -2.2926  2765.9889 H        844 DA      0.0000
    512 H62       -1.3493    -0.7500  2765.9148 H        844 DA      0.0000
    513 P          6.9956    -7.4874  2766.8855 P.3      845 DA      0.0000
    514 OP1        8.2249    -8.0524  2766.2184 O.co2    845 DA      0.0000
    515 OP2        6.2315    -8.4400  2767.7164 O.co2    845 DA      0.0000
    516 O5'        7.4595    -6.0562  2767.4163 O.3      845 DA      0.0000
    517 C5'        8.0833    -5.0731  2766.5920 C.3      845 DA      0.0000
    518 C4'        7.6917    -3.7019  2767.1143 C.3      845 DA      0.0000
    519 O4'        6.3009    -3.5476  2767.1425 O.3      845 DA      0.0000
    520 C3'        8.2154    -3.2979  2768.4816 C.3      845 DA      0.0000
    521 O3'        9.0891    -2.1718  2768.4038 O.3      845 DA      0.0000
    522 C2'        6.9434    -3.0802  2769.3103 C.3      845 DA      0.0000
    523 C1'        5.8912    -2.7743  2768.3165 C.3      845 DA      0.0000
    524 N9         4.4858    -3.1296  2768.5846 N.ar     845 DA      0.0000
    525 C8         3.8931    -4.3636  2768.6998 C.ar     845 DA      0.0000
    526 N7         2.5927    -4.3208  2768.8691 N.ar     845 DA      0.0000
    527 C5         2.2981    -2.9617  2768.8321 C.ar     845 DA      0.0000
    528 C6         1.0677    -2.2551  2768.9525 C.ar     845 DA      0.0000
    529 N6        -0.1231    -2.8090  2769.1442 N.pl3    845 DA      0.0000
    530 N1         1.1564    -0.8890  2768.8544 N.ar     845 DA      0.0000
    531 C2         2.3644    -0.2829  2768.6653 C.ar     845 DA      0.0000
    532 N3         3.5459    -0.8800  2768.5574 N.ar     845 DA      0.0000
    533 C4         3.4429    -2.2211  2768.6493 C.ar     845 DA      0.0000
    534 H5'        7.7451    -5.1862  2765.5619 H        845 DA      0.0000
    535 H5''       9.1662    -5.1883  2766.6379 H        845 DA      0.0000
    536 H4'        8.0754    -2.9719  2766.4016 H        845 DA      0.0000
    537 H3'        8.7669    -4.1374  2768.9048 H        845 DA      0.0000
    538 H2'        6.6918    -3.9807  2769.8706 H        845 DA      0.0000
    539 H2''       7.0760    -2.2384  2769.9899 H        845 DA      0.0000
    540 H1'        5.9418    -1.7136  2768.0705 H        845 DA      0.0000
    541 H8         4.4491    -5.2884  2768.6549 H        845 DA      0.0000
    542 H2         2.3592     0.7948  2768.5961 H        845 DA      0.0000
    543 H61       -0.2294    -3.7590  2769.4704 H        845 DA      0.0000
    544 H62       -0.9513    -2.2618  2768.9574 H        845 DA      0.0000
    545 P         10.3774    -1.9071  2769.3600 P.3      846 DT      0.0000
    546 OP1       11.5684    -1.3874  2768.5627 O.co2    846 DT      0.0000
    547 OP2       10.6525    -3.0679  2770.1806 O.co2    846 DT      0.0000
    548 O5'        9.9115    -0.5559  2770.1737 O.3      846 DT      0.0000
    549 C5'        9.2167     0.3654  2769.2286 C.3      846 DT      0.0000
    550 C4'        8.0448     0.8935  2770.0163 C.3      846 DT      0.0000
    551 O4'        7.0183    -0.0539  2770.2083 O.3      846 DT      0.0000
    552 C3'        8.4499     1.3411  2771.4329 C.3      846 DT      0.0000
    553 O3'        8.6426     2.7436  2771.4346 O.3      846 DT      0.0000
    554 C2'        7.3175     0.8478  2772.3302 C.3      846 DT      0.0000
    555 C1'        6.2544     0.5022  2771.3656 C.3      846 DT      0.0000
    556 N1         5.2384    -0.4812  2771.7053 N.am     846 DT      0.0000
    557 C2         3.9345    -0.0158  2771.8433 C.2      846 DT      0.0000
    558 O2         3.7036     1.1833  2771.7552 O.2      846 DT      0.0000
    559 N3         2.9503    -0.9227  2772.0972 N.am     846 DT      0.0000
    560 C4         3.1937    -2.2611  2772.2174 C.2      846 DT      0.0000
    561 O4         2.2227    -3.0427  2772.4726 O.2      846 DT      0.0000
    562 C5         4.5412    -2.7200  2772.0458 C.2      846 DT      0.0000
    563 C7         4.8599    -4.1868  2772.1333 C.3      846 DT      0.0000
    564 C6         5.5077    -1.8215  2771.7900 C.2      846 DT      0.0000
    565 H5'        9.8769     1.1786  2768.9270 H        846 DT      0.0000
    566 H5''       8.8680    -0.1831  2768.3536 H        846 DT      0.0000
    567 H4'        7.6299     1.7515  2769.4872 H        846 DT      0.0000
    568 H3'        9.3790     0.8472  2771.7173 H        846 DT      0.0000
    569 H2'        7.6252    -0.0266  2772.9036 H        846 DT      0.0000
    570 H2''       6.9843     1.6434  2772.9966 H        846 DT      0.0000
    571 H1'        5.7594     1.4200  2771.0482 H        846 DT      0.0000
    572 H3         2.0018    -0.5918  2772.2009 H        846 DT      0.0000
    573 H6         6.5218    -2.1649  2771.6479 H        846 DT      0.0000
    574 H71        3.9484    -4.7451  2772.3464 H        846 DT      0.0000
    575 H72        5.2794    -4.5243  2771.1855 H        846 DT      0.0000
    576 H73        5.5835    -4.3544  2772.9311 H        846 DT      0.0000
    577 P          9.2525     3.6453  2772.5412 P.3      847 DT      0.0000
    578 OP1        9.7826     4.9677  2771.9291 O.co2    847 DT      0.0000
    579 OP2       10.3405     2.8538  2773.1712 O.co2    847 DT      0.0000
    580 O5'        7.9945     4.1045  2773.4235 O.3      847 DT      0.0000
    581 C5'        7.1259     5.0263  2772.7118 C.3      847 DT      0.0000
    582 C4'        5.7992     5.0509  2773.3879 C.3      847 DT      0.0000
    583 O4'        5.1193     3.8020  2773.3646 O.3      847 DT      0.0000
    584 C3'        5.8431     5.5034  2774.8546 C.3      847 DT      0.0000
    585 O3'        4.7880     6.4084  2775.1186 O.3      847 DT      0.0000
    586 C2'        5.5837     4.1676  2775.5909 C.3      847 DT      0.0000
    587 C1'        4.4814     3.6536  2774.6873 C.3      847 DT      0.0000
    588 N1         4.1648     2.2690  2774.9850 N.am     847 DT      0.0000
    589 C2         2.8326     1.8927  2775.0398 C.2      847 DT      0.0000
    590 O2         1.9640     2.7456  2774.8514 O.2      847 DT      0.0000
    591 N3         2.5409     0.5844  2775.3058 N.am     847 DT      0.0000
    592 C4         3.5110    -0.3476  2775.5128 C.2      847 DT      0.0000
    593 O4         3.1656    -1.5431  2775.7361 O.2      847 DT      0.0000
    594 C5         4.8783     0.0499  2775.4477 C.2      847 DT      0.0000
    595 C7         6.0047    -0.9196  2775.6576 C.3      847 DT      0.0000
    596 C6         5.1468     1.3387  2775.1866 C.2      847 DT      0.0000
    597 H5'        7.5624     6.0250  2772.7242 H        847 DT      0.0000
    598 H5''       7.0049     4.6929  2771.6811 H        847 DT      0.0000
    599 H4'        5.1771     5.7659  2772.8494 H        847 DT      0.0000
    600 H3'        6.8127     5.9268  2775.1170 H        847 DT      0.0000
    601 H2'        6.4581     3.5168  2775.5896 H        847 DT      0.0000
    602 H2''       5.2184     4.3380  2776.6036 H        847 DT      0.0000
    603 H1'        3.5929     4.2804  2774.7629 H        847 DT      0.0000
    604 H3         1.5730     0.2996  2775.3502 H        847 DT      0.0000
    605 H6         6.1785     1.6535  2775.1335 H        847 DT      0.0000
    606 H71        5.5987    -1.9115  2775.8565 H        847 DT      0.0000
    607 H72        6.6254    -0.9543  2774.7623 H        847 DT      0.0000
    608 H73        6.6082    -0.5972  2776.5060 H        847 DT      0.0000
    609 P          4.6542     7.8490  2775.7266 P.3      848 DC      0.0000
    610 OP1        4.3152     8.8712  2774.6586 O.co2    848 DC      0.0000
    611 OP2        5.9111     8.0804  2776.4615 O.co2    848 DC      0.0000
    612 O5'        3.2758     7.5702  2776.5526 O.3      848 DC      0.0000
    613 C5'        2.3668     7.0188  2775.5303 C.3      848 DC      0.0000
    614 C4'        1.0841     6.6636  2776.2268 C.3      848 DC      0.0000
    615 O4'        0.9680     5.2966  2776.4737 O.3      848 DC      0.0000
    616 C3'        0.8157     7.4280  2777.5183 C.3      848 DC      0.0000
    617 O3'       -0.4298     8.1084  2777.4386 O.3      848 DC      0.0000
    618 C2'        0.9726     6.3248  2778.5670 C.3      848 DC      0.0000
    619 C1'        0.5744     5.0841  2777.8706 C.3      848 DC      0.0000
    620 N1         1.3170     3.8642  2778.2027 N.am     848 DC      0.0000
    621 C2         0.5452     2.7328  2778.4585 C.2      848 DC      0.0000
    622 O2        -0.6885     2.7839  2778.4630 O.2      848 DC      0.0000
    623 N3         1.2094     1.5627  2778.7324 N.2      848 DC      0.0000
    624 C4         2.5718     1.4981  2778.7224 C.2      848 DC      0.0000
    625 N4         3.1213     0.3207  2778.9993 N.pl3    848 DC      0.0000
    626 C5         3.3409     2.6495  2778.4444 C.2      848 DC      0.0000
    627 C6         2.6737     3.7915  2778.1796 C.2      848 DC      0.0000
    628 H5'        2.1785     7.7632  2774.7567 H        848 DC      0.0000
    629 H5''       2.8067     6.1260  2775.0861 H        848 DC      0.0000
    630 H4'        0.2778     6.9233  2775.5408 H        848 DC      0.0000
    631 H3'        1.6078     8.1629  2777.6616 H        848 DC      0.0000
    632 H2'        2.0069     6.2605  2778.9049 H        848 DC      0.0000
    633 H2''       0.3106     6.5115  2779.4126 H        848 DC      0.0000
    634 H1'       -0.5001     4.9200  2777.9516 H        848 DC      0.0000
    635 H5         4.4204     2.6169  2778.4438 H        848 DC      0.0000
    636 H6         3.2384     4.6805  2777.9406 H        848 DC      0.0000
    637 H41        2.5339    -0.4764  2779.1985 H        848 DC      0.0000
    638 H42        4.1265     0.2227  2779.0106 H        848 DC      0.0000
    639 P         -0.9222     9.3268  2778.3906 P.3      849 DA      0.0000
    640 OP1       -1.9366    10.1275  2777.5969 O.co2    849 DA      0.0000
    641 OP2        0.2634    10.1373  2778.7362 O.co2    849 DA      0.0000
    642 O5'       -1.5951     8.5698  2779.6876 O.3      849 DA      0.0000
    643 C5'       -2.6162     7.5682  2779.3924 C.3      849 DA      0.0000
    644 C4'       -3.0649     6.8947  2780.6477 C.3      849 DA      0.0000
    645 O4'       -2.4811     5.6111  2780.8898 O.3      849 DA      0.0000
    646 C3'       -2.7513     7.6450  2781.9529 C.3      849 DA      0.0000
    647 O3'       -3.6067     7.1443  2782.9829 O.3      849 DA      0.0000
    648 C2'       -1.2985     7.1755  2782.1675 C.3      849 DA      0.0000
    649 C1'       -1.5701     5.6785  2781.9843 C.3      849 DA      0.0000
    650 N9        -0.3046     4.9706  2781.8899 N.ar     849 DA      0.0000
    651 C8         0.9735     5.4427  2781.7741 C.ar     849 DA      0.0000
    652 N7         1.9121     4.5134  2781.7555 N.ar     849 DA      0.0000
    653 C5         1.1903     3.3330  2781.8630 C.ar     849 DA      0.0000
    654 C6         1.5918     1.9748  2781.8976 C.ar     849 DA      0.0000
    655 N6         2.8434     1.5613  2781.8123 N.pl3    849 DA      0.0000
    656 N1         0.5912     1.0551  2782.0301 N.ar     849 DA      0.0000
    657 C2        -0.7208     1.4395  2782.1103 C.ar     849 DA      0.0000
    658 N3        -1.1746     2.6904  2782.0805 N.ar     849 DA      0.0000
    659 C4        -0.1678     3.5898  2781.9575 C.ar     849 DA      0.0000
    660 H5'       -3.4703     8.0547  2778.9213 H        849 DA      0.0000
    661 H5''      -2.2045     6.8236  2778.7111 H        849 DA      0.0000
    662 H4'       -4.1455     6.7643  2780.5888 H        849 DA      0.0000
    663 H3'       -2.8263     8.7264  2781.8393 H        849 DA      0.0000
    664 H2'       -0.6151     7.5720  2781.4168 H        849 DA      0.0000
    665 H2''      -0.9532     7.3970  2783.1774 H        849 DA      0.0000
    666 H1'       -2.0883     5.3208  2782.8739 H        849 DA      0.0000
    667 H8         1.1988     6.4966  2781.7031 H        849 DA      0.0000
    668 H2        -1.4559     0.6542  2782.2068 H        849 DA      0.0000
    669 H61        3.3080     0.6827  2781.9924 H        849 DA      0.0000
    670 H62        3.4757     2.2833  2781.4976 H        849 DA      0.0000
    671 P         -5.1216     7.6401  2783.1233 P.3      850 DC      0.0000
    672 OP1       -5.6538     8.2627  2781.8782 O.co2    850 DC      0.0000
    673 OP2       -5.0332     8.6098  2784.2662 O.co2    850 DC      0.0000
    674 O5'       -5.9192     6.2992  2783.4065 O.3      850 DC      0.0000
    675 C5'       -6.3169     5.4106  2782.3188 C.3      850 DC      0.0000
    676 C4'       -6.3313     4.0495  2783.0237 C.3      850 DC      0.0000
    677 O4'       -4.9967     3.7237  2783.3357 O.3      850 DC      0.0000
    678 C3'       -7.1150     4.0430  2784.3336 C.3      850 DC      0.0000
    679 O3'       -8.0888     2.9768  2784.4015 O.3      850 DC      0.0000
    680 C2'       -6.0293     3.9439  2785.4158 C.3      850 DC      0.0000
    681 C1'       -4.9738     3.1666  2784.7397 C.3      850 DC      0.0000
    682 N1        -3.5654     3.3252  2785.0925 N.am     850 DC      0.0000
    683 C2        -2.8126     2.1527  2785.0656 C.2      850 DC      0.0000
    684 O2        -3.3090     1.0525  2784.8587 O.2      850 DC      0.0000
    685 N3        -1.4805     2.2595  2785.3187 N.2      850 DC      0.0000
    686 C4        -0.8773     3.4501  2785.5521 C.2      850 DC      0.0000
    687 N4         0.4340     3.4265  2785.7830 N.pl3    850 DC      0.0000
    688 C5        -1.6540     4.6413  2785.5586 C.2      850 DC      0.0000
    689 C6        -2.9677     4.5282  2785.3092 C.2      850 DC      0.0000
    690 H5'       -7.3032     5.6698  2781.9339 H        850 DC      0.0000
    691 H5''      -5.5755     5.4233  2781.5198 H        850 DC      0.0000
    692 H4'       -6.7415     3.2963  2782.3511 H        850 DC      0.0000
    693 H3'       -7.6308     4.9974  2784.4395 H        850 DC      0.0000
    694 H2'       -5.6682     4.9315  2785.7028 H        850 DC      0.0000
    695 H2''      -6.4039     3.4051  2786.2861 H        850 DC      0.0000
    696 H1'       -5.2389     2.1094  2784.7264 H        850 DC      0.0000
    697 H5        -1.2028     5.6023  2785.7571 H        850 DC      0.0000
    698 H6        -3.5716     5.4231  2785.2795 H        850 DC      0.0000
    699 H41        0.9330     2.5485  2785.7720 H        850 DC      0.0000
    700 H42        0.9296     4.2867  2785.9692 H        850 DC      0.0000
    701 P          7.3955    -4.1657  2787.3610 P.3      850 DG      0.0000
    702 OP1        8.7208    -4.8354  2787.5398 O.co2    850 DG      0.0000
    703 OP2        7.4089    -3.0968  2786.2762 O.co2    850 DG      0.0000
    704 O5'        6.2298    -5.3091  2787.1538 O.3      850 DG      0.0000
    705 C5'        5.2947    -5.5824  2788.2496 C.3      850 DG      0.0000
    706 C4'        3.9292    -5.8364  2787.6153 C.3      850 DG      0.0000
    707 O4'        3.1683    -4.6632  2787.5195 O.3      850 DG      0.0000
    708 C3'        3.9859    -6.4270  2786.2090 C.3      850 DG      0.0000
    709 O3'        2.9798    -7.4313  2785.9420 O.3      850 DG      0.0000
    710 C2'        3.8043    -5.1931  2785.3067 C.3      850 DG      0.0000
    711 C1'        2.8188    -4.3811  2786.1305 C.3      850 DG      0.0000
    712 N9         2.9594    -2.9407  2785.8572 N.ar     850 DG      0.0000
    713 C8         4.1191    -2.2195  2785.7005 C.ar     850 DG      0.0000
    714 N7         3.9268    -0.9457  2785.4821 N.ar     850 DG      0.0000
    715 C5         2.5435    -0.8125  2785.5069 C.ar     850 DG      0.0000
    716 C6         1.7082     0.3257  2785.3505 C.2      850 DG      0.0000
    717 O6         2.0765     1.4925  2785.1536 O.2      850 DG      0.0000
    718 N1         0.3645     0.0567  2785.4374 N.am     850 DG      0.0000
    719 C2        -0.1197    -1.1901  2785.6581 C.2      850 DG      0.0000
    720 N2        -1.4440    -1.2977  2785.7214 N.pl3    850 DG      0.0000
    721 N3         0.6217    -2.2934  2785.8158 N.2      850 DG      0.0000
    722 C4         1.9400    -2.0288  2785.7325 C.ar     850 DG      0.0000
    723 H5'        5.6179    -6.4614  2788.8074 H        850 DG      0.0000
    724 H5''       5.2403    -4.7205  2788.9145 H        850 DG      0.0000
    725 H4'        3.3881    -6.5364  2788.2520 H        850 DG      0.0000
    726 H3'        4.9740    -6.8544  2786.0385 H        850 DG      0.0000
    727 H2'        4.7437    -4.6589  2785.1640 H        850 DG      0.0000
    728 H2''       3.3689    -5.4746  2784.3479 H        850 DG      0.0000
    729 H1'        1.7987    -4.7058  2785.9253 H        850 DG      0.0000
    730 H8         5.1012    -2.6657  2785.7533 H        850 DG      0.0000
    731 H1        -0.2898     0.8189  2785.3326 H        850 DG      0.0000
    732 H21       -2.0233    -0.4784  2785.6063 H        850 DG      0.0000
    733 H22       -1.8703    -2.1987  2785.8846 H        850 DG      0.0000
    734 P          2.4947    -7.5391  2784.4185 P.3      849 DT      0.0000
    735 OP1        2.0238    -8.9140  2784.0276 O.co2    849 DT      0.0000
    736 OP2        3.7530    -7.1827  2783.7180 O.co2    849 DT      0.0000
    737 O5'        1.2923    -6.4882  2784.2876 O.3      849 DT      0.0000
    738 C5'       -0.0555    -6.9919  2784.5552 C.3      849 DT      0.0000
    739 C4'       -1.0458    -6.1340  2783.7982 C.3      849 DT      0.0000
    740 O4'       -0.6825    -4.7652  2783.7709 O.3      849 DT      0.0000
    741 C3'       -1.2039    -6.5486  2782.3435 C.3      849 DT      0.0000
    742 O3'       -2.5572    -6.4532  2781.8484 O.3      849 DT      0.0000
    743 C2'       -0.2714    -5.6020  2781.6206 C.3      849 DT      0.0000
    744 C1'       -0.5591    -4.3287  2782.3987 C.3      849 DT      0.0000
    745 N1         0.6217    -3.4639  2782.2474 N.am     849 DT      0.0000
    746 C2         0.3985    -2.0949  2782.3542 C.2      849 DT      0.0000
    747 O2        -0.7333    -1.6625  2782.5439 O.2      849 DT      0.0000
    748 N3         1.4850    -1.2742  2782.2340 N.am     849 DT      0.0000
    749 C4         2.7379    -1.7640  2782.0164 C.2      849 DT      0.0000
    750 O4         3.6893    -0.9202  2781.9189 O.2      849 DT      0.0000
    751 C5         2.9351    -3.1704  2781.9101 C.2      849 DT      0.0000
    752 C7         4.3131    -3.7219  2781.6811 C.3      849 DT      0.0000
    753 C6         1.8703    -3.9673  2782.0318 C.2      849 DT      0.0000
    754 H5'       -0.1346    -8.0266  2784.2215 H        849 DT      0.0000
    755 H5''      -0.2627    -6.9347  2785.6238 H        849 DT      0.0000
    756 H4'       -2.0166    -6.2207  2784.2861 H        849 DT      0.0000
    757 H3'       -0.8464    -7.5708  2782.2195 H        849 DT      0.0000
    758 H2'        0.7706    -5.9083  2781.7122 H        849 DT      0.0000
    759 H2''      -0.5572    -5.4942  2780.5742 H        849 DT      0.0000
    760 H1'       -1.4668    -3.8376  2782.0481 H        849 DT      0.0000
    761 H3         1.3554    -0.2754  2782.3087 H        849 DT      0.0000
    762 H6         2.0015    -5.0367  2781.9577 H        849 DT      0.0000
    763 H71        5.0268    -2.9009  2781.6124 H        849 DT      0.0000
    764 H72        4.5866    -4.3722  2782.5120 H        849 DT      0.0000
    765 H73        4.3262    -4.2934  2780.7530 H        849 DT      0.0000
    766 P         -2.8941    -7.8798  2781.0700 P.3      848 DG      0.0000
    767 OP1       -3.5736    -8.8855  2781.9412 O.co2    848 DG      0.0000
    768 OP2       -1.5124    -8.2396  2780.6644 O.co2    848 DG      0.0000
    769 O5'       -3.9588    -7.3769  2779.9892 O.3      848 DG      0.0000
    770 C5'       -5.3247    -7.1360  2780.4126 C.3      848 DG      0.0000
    771 C4'       -5.6255    -5.7111  2779.9649 C.3      848 DG      0.0000
    772 O4'       -4.5123    -4.8831  2780.2356 O.3      848 DG      0.0000
    773 C3'       -5.9488    -5.5727  2778.4772 C.3      848 DG      0.0000
    774 O3'       -7.2071    -4.9569  2778.2687 O.3      848 DG      0.0000
    775 C2'       -4.7549    -4.8328  2777.9005 C.3      848 DG      0.0000
    776 C1'       -4.2425    -4.0505  2779.0866 C.3      848 DG      0.0000
    777 N9        -2.8051    -3.7936  2778.9630 N.ar     848 DG      0.0000
    778 C8        -1.7927    -4.6971  2778.8042 C.ar     848 DG      0.0000
    779 N7        -0.6044    -4.1495  2778.7261 N.ar     848 DG      0.0000
    780 C5        -0.8504    -2.7865  2778.8636 C.ar     848 DG      0.0000
    781 C6         0.0183    -1.6635  2778.8731 C.2      848 DG      0.0000
    782 O6         1.2412    -1.6721  2778.7740 O.2      848 DG      0.0000
    783 N1        -0.6102    -0.4599  2779.0221 N.am     848 DG      0.0000
    784 C2        -1.9740    -0.3600  2779.1549 C.2      848 DG      0.0000
    785 N2        -2.4569     0.8754  2779.2906 N.pl3    848 DG      0.0000
    786 N3        -2.8459    -1.3734  2779.1592 N.2      848 DG      0.0000
    787 C4        -2.2085    -2.5594  2779.0085 C.ar     848 DG      0.0000
    788 H5'       -6.0049    -7.8404  2779.9339 H        848 DG      0.0000
    789 H5''      -5.4025    -7.2146  2781.4970 H        848 DG      0.0000
    790 H4'       -6.4763    -5.3425  2780.5379 H        848 DG      0.0000
    791 H3'       -5.9784    -6.5701  2778.0386 H        848 DG      0.0000
    792 H2'       -4.0008    -5.5293  2777.5341 H        848 DG      0.0000
    793 H2''      -5.0710    -4.1580  2777.1049 H        848 DG      0.0000
    794 H1'       -4.7836    -3.1082  2779.1736 H        848 DG      0.0000
    795 H8        -1.9563    -5.7631  2778.7481 H        848 DG      0.0000
    796 H1        -0.0547     0.3834  2779.0349 H        848 DG      0.0000
    797 H21       -1.8284     1.6661  2779.2916 H        848 DG      0.0000
    798 H22       -3.4512     1.0206  2779.3924 H        848 DG      0.0000
    799 P         -7.7284    -3.7424  2777.4024 P.3      847 DA      0.0000
    800 OP1       -8.7854    -2.9517  2778.1837 O.co2    847 DA      0.0000
    801 OP2       -8.3225    -4.3505  2776.2097 O.co2    847 DA      0.0000
    802 O5'       -6.4626    -2.7318  2777.2276 O.3      847 DA      0.0000
    803 C5'       -6.3288    -1.8229  2778.3840 C.3      847 DA      0.0000
    804 C4'       -6.5239    -0.4231  2777.8562 C.3      847 DA      0.0000
    805 O4'       -5.3064     0.2421  2777.6339 O.3      847 DA      0.0000
    806 C3'       -7.2568    -0.3886  2776.5157 C.3      847 DA      0.0000
    807 O3'       -8.1972     0.6560  2776.4405 O.3      847 DA      0.0000
    808 C2'       -6.1116    -0.3805  2775.5191 C.3      847 DA      0.0000
    809 C1'       -4.9211     0.1838  2776.2430 C.3      847 DA      0.0000
    810 N9        -3.7127    -0.6275  2776.0175 N.ar     847 DA      0.0000
    811 C8        -3.6057    -1.9888  2775.8311 C.ar     847 DA      0.0000
    812 N7        -2.3788    -2.4138  2775.6352 N.ar     847 DA      0.0000
    813 C5        -1.6222    -1.2519  2775.7221 C.ar     847 DA      0.0000
    814 C6        -0.2288    -1.0325  2775.6164 C.ar     847 DA      0.0000
    815 N6         0.6529    -1.9934  2775.4040 N.pl3    847 DA      0.0000
    816 N1         0.1850     0.2589  2775.7402 N.ar     847 DA      0.0000
    817 C2        -0.7034     1.2717  2775.9647 C.ar     847 DA      0.0000
    818 N3        -2.0225     1.1328  2776.0806 N.ar     847 DA      0.0000
    819 C4        -2.4217    -0.1549  2775.9444 C.ar     847 DA      0.0000
    820 H5'       -7.0878    -2.0519  2779.1321 H        847 DA      0.0000
    821 H5''      -5.3349    -1.9205  2778.8207 H        847 DA      0.0000
    822 H4'       -7.1030     0.1454  2778.5839 H        847 DA      0.0000
    823 H3'       -7.7929    -1.3309  2776.4026 H        847 DA      0.0000
    824 H2'       -6.3624     0.2446  2774.6623 H        847 DA      0.0000
    825 H2''      -5.8987    -1.3971  2775.1886 H        847 DA      0.0000
    826 H1'       -4.7380     1.1968  2775.8848 H        847 DA      0.0000
    827 H8        -4.4592    -2.6505  2775.8450 H        847 DA      0.0000
    828 H2        -0.3018     2.2701  2776.0559 H        847 DA      0.0000
    829 H61        1.6084    -1.9049  2775.7194 H        847 DA      0.0000
    830 H62        0.3665    -2.8310  2774.9177 H        847 DA      0.0000
    831 P         -8.5927     1.6241  2775.2559 P.3      846 DA      0.0000
    832 OP1       -9.4960     2.7803  2775.7758 O.co2    846 DA      0.0000
    833 OP2       -9.3886     0.7677  2774.3222 O.co2    846 DA      0.0000
    834 O5'       -7.2704     2.3175  2774.7532 O.3      846 DA      0.0000
    835 C5'       -6.9343     3.6443  2775.2091 C.3      846 DA      0.0000
    836 C4'       -5.6539     4.0413  2774.5071 C.3      846 DA      0.0000
    837 O4'       -4.7192     3.0072  2774.3864 O.3      846 DA      0.0000
    838 C3'       -5.8766     4.5929  2773.0996 C.3      846 DA      0.0000
    839 O3'       -5.5143     5.9863  2773.0682 O.3      846 DA      0.0000
    840 C2'       -5.1099     3.6217  2772.2001 C.3      846 DA      0.0000
    841 C1'       -4.0270     3.1048  2773.0978 C.3      846 DA      0.0000
    842 N9        -3.5139     1.7720  2772.7982 N.ar     846 DA      0.0000
    843 C8        -4.2047     0.5938  2772.6035 C.ar     846 DA      0.0000
    844 N7        -3.4296    -0.4476  2772.3981 N.ar     846 DA      0.0000
    845 C5        -2.1489     0.0644  2772.4726 C.ar     846 DA      0.0000
    846 C6        -0.8805    -0.5436  2772.3391 C.ar     846 DA      0.0000
    847 N6        -0.7020    -1.8385  2772.0959 N.pl3    846 DA      0.0000
    848 N1         0.1905     0.3006  2772.4879 N.ar     846 DA      0.0000
    849 C2         0.0407     1.6151  2772.7405 C.ar     846 DA      0.0000
    850 N3        -1.1231     2.2573  2772.8793 N.ar     846 DA      0.0000
    851 C4        -2.1764     1.4230  2772.7321 C.ar     846 DA      0.0000
    852 H5'       -7.7326     4.3412  2774.9539 H        846 DA      0.0000
    853 H5''      -6.7788     3.6374  2776.2879 H        846 DA      0.0000
    854 H4'       -5.1906     4.8319  2775.0973 H        846 DA      0.0000
    855 H3'       -6.9377     4.5106  2772.8646 H        846 DA      0.0000
    856 H2'       -5.7554     2.8117  2771.8602 H        846 DA      0.0000
    857 H2''      -4.6799     4.1493  2771.3487 H        846 DA      0.0000
    858 H1'       -3.2087     3.8224  2773.1589 H        846 DA      0.0000
    859 H8        -5.2829     0.5328  2772.6185 H        846 DA      0.0000
    860 H2         0.9414     2.2027  2772.8395 H        846 DA      0.0000
    861 H61        0.1883    -2.2140  2772.3899 H        846 DA      0.0000
    862 H62       -1.4071    -2.4067  2771.6486 H        846 DA      0.0000
    863 P         -5.6488     6.7961  2771.6832 P.3      845 DT      0.0000
    864 OP1       -5.5756     8.2909  2771.7413 O.co2    845 DT      0.0000
    865 OP2       -6.9370     6.2370  2771.1706 O.co2    845 DT      0.0000
    866 O5'       -4.2265     6.2859  2770.9801 O.3      845 DT      0.0000
    867 C5'       -3.1748     6.2813  2771.9924 C.3      845 DT      0.0000
    868 C4'       -1.8472     6.3644  2771.3094 C.3      845 DT      0.0000
    869 O4'       -1.2335     5.1232  2771.1290 O.3      845 DT      0.0000
    870 C3'       -1.8889     7.0414  2769.9482 C.3      845 DT      0.0000
    871 O3'       -0.7303     7.8410  2769.6809 O.3      845 DT      0.0000
    872 C2'       -2.0479     5.8042  2769.0548 C.3      845 DT      0.0000
    873 C1'       -1.0752     4.8370  2769.6949 C.3      845 DT      0.0000
    874 N1        -1.4823     3.4380  2769.4649 N.am     845 DT      0.0000
    875 C2        -0.4794     2.4923  2769.3433 C.2      845 DT      0.0000
    876 O2         0.7088     2.8156  2769.3800 O.2      845 DT      0.0000
    877 N3        -0.8469     1.1847  2769.1759 N.am     845 DT      0.0000
    878 C4        -2.1519     0.8049  2769.1273 C.2      845 DT      0.0000
    879 O4        -2.4001    -0.4238  2768.9418 O.2      845 DT      0.0000
    880 C5        -3.1677     1.7904  2769.2757 C.2      845 DT      0.0000
    881 C7        -4.6271     1.4056  2769.2236 C.3      845 DT      0.0000
    882 C6        -2.7925     3.0621  2769.4487 C.2      845 DT      0.0000
    883 H5'       -3.3002     7.1380  2772.6545 H        845 DT      0.0000
    884 H5''      -3.2302     5.3601  2772.5724 H        845 DT      0.0000
    885 H4'       -1.1926     6.9592  2771.9465 H        845 DT      0.0000
    886 H3'       -2.7833     7.6602  2769.8762 H        845 DT      0.0000
    887 H2'       -3.0677     5.4205  2769.0854 H        845 DT      0.0000
    888 H2''      -1.7510     6.0280  2768.0302 H        845 DT      0.0000
    889 H1'       -0.0532     5.0169  2769.3609 H        845 DT      0.0000
    890 H3        -0.1278     0.4812  2769.0857 H        845 DT      0.0000
    891 H6        -3.5534     3.8172  2769.5801 H        845 DT      0.0000
    892 H71       -5.0126     1.5760  2768.2184 H        845 DT      0.0000
    893 H72       -5.1880     2.0117  2769.9352 H        845 DT      0.0000
    894 H73       -4.7344     0.3517  2769.4801 H        845 DT      0.0000
    895 P         -0.6623     8.5118  2768.1910 P.3      844 DT      0.0000
    896 OP1       -0.7621    10.0312  2768.3390 O.co2    844 DT      0.0000
    897 OP2       -1.8998     7.9869  2767.5211 O.co2    844 DT      0.0000
    898 O5'        0.6735     8.0724  2767.5389 O.3      844 DT      0.0000
    899 C5'        1.8539     7.7893  2768.2903 C.3      844 DT      0.0000
    900 C4'        2.6524     6.7704  2767.5423 C.3      844 DT      0.0000
    901 O4'        2.1715     5.4546  2767.4853 O.3      844 DT      0.0000
    902 C3'        3.0184     7.0881  2766.0763 C.3      844 DT      0.0000
    903 O3'        4.3133     6.4886  2765.9725 O.3      844 DT      0.0000
    904 C2'        1.9519     6.2920  2765.3125 C.3      844 DT      0.0000
    905 C1'        2.0940     4.9984  2766.0883 C.3      844 DT      0.0000
    906 N1         0.9712     4.0623  2765.9821 N.am     844 DT      0.0000
    907 C2         1.3191     2.7048  2765.9815 C.2      844 DT      0.0000
    908 O2         2.4990     2.3503  2766.0245 O.2      844 DT      0.0000
    909 N3         0.2964     1.8018  2765.9280 N.am     844 DT      0.0000
    910 C4        -1.0138     2.1734  2765.8683 C.2      844 DT      0.0000
    911 O4        -1.8898     1.2590  2765.8059 O.2      844 DT      0.0000
    912 C5        -1.3386     3.5573  2765.8765 C.2      844 DT      0.0000
    913 C7        -2.7902     3.9844  2765.8151 C.3      844 DT      0.0000
    914 C6        -0.3351     4.4371  2765.9430 C.2      844 DT      0.0000
    915 H5'        2.4403     8.6999  2768.4125 H        844 DT      0.0000
    916 H5''       1.5802     7.3950  2769.2689 H        844 DT      0.0000
    917 H4'        3.6043     6.7066  2768.0696 H        844 DT      0.0000
    918 H3'        3.0126     8.1538  2765.8476 H        844 DT      0.0000
    919 H2'        2.1967     6.1738  2764.2570 H        844 DT      0.0000
    920 H2''       0.9613     6.7272  2765.4441 H        844 DT      0.0000
    921 H1'        3.0215     4.4985  2765.8092 H        844 DT      0.0000
    922 H3         0.5201     0.8169  2765.9329 H        844 DT      0.0000
    923 H6        -0.5717     5.4906  2765.9667 H        844 DT      0.0000
    924 H71       -3.4275     3.1015  2765.7663 H        844 DT      0.0000
    925 H72       -2.9511     4.5977  2764.9285 H        844 DT      0.0000
    926 H73       -3.0371     4.5618  2766.7060 H        844 DT      0.0000
    927 P          5.3417     6.6862  2764.8263 P.3      843 DC      0.0000
    928 OP1        6.7096     6.9994  2765.4354 O.co2    843 DC      0.0000
    929 OP2        4.8575     7.8668  2764.0444 O.co2    843 DC      0.0000
    930 O5'        5.2704     5.2362  2764.0869 O.3      843 DC      0.0000
    931 C5'        5.9205     4.1409  2764.8114 C.3      843 DC      0.0000
    932 C4'        6.4910     3.2239  2763.7609 C.3      843 DC      0.0000
    933 O4'        5.6614     2.1122  2763.5156 O.3      843 DC      0.0000
    934 C3'        6.7387     3.8694  2762.3964 C.3      843 DC      0.0000
    935 O3'        7.8658     3.3503  2761.6872 O.3      843 DC      0.0000
    936 C2'        5.3902     3.6112  2761.7103 C.3      843 DC      0.0000
    937 C1'        5.0002     2.2392  2762.2569 C.3      843 DC      0.0000
    938 N1         3.5237     2.1976  2762.3747 N.am     843 DC      0.0000
    939 C2         2.9247     0.9388  2762.3920 C.2      843 DC      0.0000
    940 O2         3.6040    -0.0947  2762.3233 O.2      843 DC      0.0000
    941 N3         1.5605     0.8957  2762.4952 N.2      843 DC      0.0000
    942 C4         0.8055     2.0231  2762.5659 C.2      843 DC      0.0000
    943 N4        -0.5222     1.9292  2762.6679 N.pl3    843 DC      0.0000
    944 C5         1.4421     3.2953  2762.5408 C.2      843 DC      0.0000
    945 C6         2.7822     3.3367  2762.4472 C.2      843 DC      0.0000
    946 H5'        6.7164     4.5284  2765.4474 H        843 DC      0.0000
    947 H5''       5.1874     3.6061  2765.4153 H        843 DC      0.0000
    948 H4'        7.4462     2.8503  2764.1296 H        843 DC      0.0000
    949 H3'        6.8682     4.9432  2762.5306 H        843 DC      0.0000
    950 H2'        5.4980     3.5873  2760.6259 H        843 DC      0.0000
    951 H2''       4.6591     4.3636  2762.0063 H        843 DC      0.0000
    952 H1'        5.3411     1.4579  2761.5775 H        843 DC      0.0000
    953 H5         0.8627     4.2051  2762.5956 H        843 DC      0.0000
    954 H6         3.2814     4.2943  2762.4291 H        843 DC      0.0000
    955 H41       -0.9641     1.0212  2762.6886 H        843 DC      0.0000
    956 H42       -1.0848     2.7661  2762.7242 H        843 DC      0.0000
    957 P          7.9655     3.1388  2760.0552 P.3      842 DA      0.0000
    958 OP1        9.4279     3.1315  2759.6657 O.co2    842 DA      0.0000
    959 OP2        7.1728     4.2619  2759.4851 O.co2    842 DA      0.0000
    960 O5'        7.3992     1.6554  2759.8896 O.3      842 DA      0.0000
    961 C5'        8.2479     0.5351  2760.3551 C.3      842 DA      0.0000
    962 C4'        7.7627    -0.6064  2759.4778 C.3      842 DA      0.0000
    963 O4'        6.3791    -0.8681  2759.7451 O.3      842 DA      0.0000
    964 C3'        7.8132    -0.2854  2757.9734 C.3      842 DA      0.0000
    965 O3'        7.7219    -1.4609  2757.1843 O.3      842 DA      0.0000
    966 C2'        6.4652     0.4348  2757.7859 C.3      842 DA      0.0000
    967 C1'        5.6354    -0.6396  2758.5406 C.3      842 DA      0.0000
    968 N9         4.3117    -0.0429  2758.6860 N.ar     842 DA      0.0000
    969 C8         4.0233     1.3015  2758.7588 C.ar     842 DA      0.0000
    970 N7         2.7434     1.5530  2758.8735 N.ar     842 DA      0.0000
    971 C5         2.1548     0.2757  2758.8671 C.ar     842 DA      0.0000
    972 C6         0.7937    -0.1238  2758.9670 C.ar     842 DA      0.0000
    973 N6        -0.2249     0.7321  2759.0899 N.pl3    842 DA      0.0000
    974 N1         0.5987    -1.4717  2758.9319 N.ar     842 DA      0.0000
    975 C2         1.6322    -2.3407  2758.8130 C.ar     842 DA      0.0000
    976 N3         2.9298    -2.0357  2758.7215 N.ar     842 DA      0.0000
    977 C4         3.1098    -0.7036  2758.7491 C.ar     842 DA      0.0000
    978 H5'        9.3049     0.7421  2760.1883 H        842 DA      0.0000
    979 H5''       8.0587     0.3198  2761.4067 H        842 DA      0.0000
    980 H4'        8.3511    -1.5010  2759.6817 H        842 DA      0.0000
    981 H3'        8.6655     0.3382  2757.7037 H        842 DA      0.0000
    982 H2'        6.4343     1.4121  2758.2675 H        842 DA      0.0000
    983 H2''       6.1840     0.4953  2756.7345 H        842 DA      0.0000
    984 H1'        5.5761    -1.5552  2757.9521 H        842 DA      0.0000
    985 H8         4.7786     2.0728  2758.7248 H        842 DA      0.0000
    986 H2         1.3801    -3.3906  2758.7898 H        842 DA      0.0000
    987 H61       -0.0489     1.7264  2759.1146 H        842 DA      0.0000
    988 H62       -1.1709     0.3849  2759.1580 H        842 DA      0.0000
    989 P          8.7858    -1.7575  2756.0434 P.3      841 DC      0.0000
    990 OP1        9.9247    -2.3929  2756.8237 O.co2    841 DC      0.0000
    991 OP2        9.1897    -0.5479  2755.3178 O.co2    841 DC      0.0000
    992 O5'        7.9136    -2.7532  2755.0675 O.3      841 DC      0.0000
    993 C5'        7.2831    -3.9114  2755.7366 C.3      841 DC      0.0000
    994 C4'        5.9458    -4.1655  2755.0925 C.3      841 DC      0.0000
    995 O4'        4.8657    -3.4943  2755.7297 O.3      841 DC      0.0000
    996 C3'        5.9027    -3.7407  2753.6147 C.3      841 DC      0.0000
    997 O3'        5.0671    -4.5567  2752.8034 O.3      841 DC      0.0000
    998 C2'        5.2382    -2.3348  2753.7804 C.3      841 DC      0.0000
    999 C1'        4.0765    -2.9033  2754.6759 C.3      841 DC      0.0000
   1000 N1         3.1597    -1.8193  2754.9138 N.am     841 DC      0.0000
   1001 C2         1.8457    -2.1231  2755.2310 C.2      841 DC      0.0000
   1002 O2         1.3015    -3.2241  2755.3714 O.2      841 DC      0.0000
   1003 N3         0.9773    -1.0857  2755.4292 N.2      841 DC      0.0000
   1004 C4         1.3693     0.2195  2755.3132 C.2      841 DC      0.0000
   1005 N4         0.4838     1.2048  2755.5293 N.pl3    841 DC      0.0000
   1006 C5         2.7208     0.5156  2754.9836 C.2      841 DC      0.0000
   1007 C6         3.5511    -0.5160  2754.7919 C.2      841 DC      0.0000
   1008 H5'        7.9177    -4.7906  2755.6251 H        841 DC      0.0000
   1009 H5''       7.1441    -3.6919  2756.7952 H        841 DC      0.0000
   1010 H4'        5.7492    -5.2366  2755.1393 H        841 DC      0.0000
   1011 H3'        6.9056    -3.6590  2753.1957 H        841 DC      0.0000
   1012 H2'        5.8714    -1.6139  2754.2975 H        841 DC      0.0000
   1013 H2''       4.8678    -1.9451  2752.8321 H        841 DC      0.0000
   1014 H1'        3.5604    -3.6938  2754.1310 H        841 DC      0.0000
   1015 H5         3.0642     1.5355  2754.8914 H        841 DC      0.0000
   1016 H6         4.5779    -0.3089  2754.5286 H        841 DC      0.0000
   1017 H41       -0.4714     0.9815  2755.7698 H        841 DC      0.0000
   1018 H42        0.7726     2.1695  2755.4514 H        841 DC      0.0000
   1019 P         -9.9054     1.5052  2789.4026 P.3      851 DG      0.0000
   1020 OP1      -11.0898     2.3988  2789.4010 O.co2    851 DG      0.0000
   1021 OP2       -8.9358     2.0563  2790.4583 O.co2    851 DG      0.0000
   1022 O5'      -10.1799    -0.0519  2789.5810 O.3      851 DG      0.0000
   1023 C5'      -10.1914    -1.0927  2788.5810 C.3      851 DG      0.0000
   1024 C4'       -9.3313    -2.2351  2789.0798 C.3      851 DG      0.0000
   1025 O4'       -7.9895    -2.1115  2788.6606 O.3      851 DG      0.0000
   1026 C3'       -9.2961    -2.4965  2790.5720 C.3      851 DG      0.0000
   1027 O3'       -9.6393    -3.8736  2790.8840 O.3      851 DG      0.0000
   1028 C2'       -7.8890    -2.1182  2790.9939 C.3      851 DG      0.0000
   1029 C1'       -7.0761    -2.3214  2789.7382 C.3      851 DG      0.0000
   1030 N9        -5.9461    -1.3751  2789.7092 N.ar     851 DG      0.0000
   1031 C8        -5.9378    -0.0194  2789.9380 C.ar     851 DG      0.0000
   1032 N7        -4.7489     0.5327  2789.8483 N.ar     851 DG      0.0000
   1033 C5        -3.9117    -0.5338  2789.5313 C.ar     851 DG      0.0000
   1034 C6        -2.5147    -0.6022  2789.3054 C.2      851 DG      0.0000
   1035 O6        -1.6932     0.3148  2789.3267 O.2      851 DG      0.0000
   1036 N1        -2.0308    -1.8504  2789.0239 N.am     851 DG      0.0000
   1037 C2        -2.7831    -2.9023  2788.9632 C.2      851 DG      0.0000
   1038 N2        -2.0883    -3.9311  2788.6665 N.pl3    851 DG      0.0000
   1039 N3        -4.1655    -2.9369  2789.1720 N.2      851 DG      0.0000
   1040 C4        -4.6325    -1.7100  2789.4445 C.ar     851 DG      0.0000
   1041 H5'      -11.2120    -1.4410  2788.4223 H        851 DG      0.0000
   1042 H5''      -9.7849    -0.7080  2787.6456 H        851 DG      0.0000
   1043 H4'       -9.7194    -3.1415  2788.6151 H        851 DG      0.0000
   1044 H3'      -10.0057    -1.8328  2791.0659 H        851 DG      0.0000
   1045 H2'       -7.8469    -1.0793  2791.3208 H        851 DG      0.0000
   1046 H2''      -7.5383    -2.7805  2791.7854 H        851 DG      0.0000
   1047 H1'       -6.6995    -3.3438  2789.7063 H        851 DG      0.0000
   1048 H8        -6.8303     0.5424  2790.1711 H        851 DG      0.0000
   1049 H1        -1.0406    -1.9562  2788.8555 H        851 DG      0.0000
   1050 H21       -1.0925    -3.8435  2788.5221 H        851 DG      0.0000
   1051 H22       -2.5343    -4.8327  2788.5760 H        851 DG      0.0000
   1052 P         -9.4124    -4.5063  2792.3125 P.3      852 DT      0.0000
   1053 OP1      -10.5045    -5.4096  2792.8242 O.co2    852 DT      0.0000
   1054 OP2       -9.4632    -3.2720  2793.2312 O.co2    852 DT      0.0000
   1055 O5'       -7.9819    -5.1027  2792.3411 O.3      852 DT      0.0000
   1056 C5'       -7.7107    -6.5241  2792.1971 C.3      852 DT      0.0000
   1057 C4'       -6.2013    -6.6324  2792.2546 C.3      852 DT      0.0000
   1058 O4'       -5.5677    -5.4024  2791.9795 O.3      852 DT      0.0000
   1059 C3'       -5.6107    -7.0812  2793.5673 C.3      852 DT      0.0000
   1060 O3'       -4.9798    -8.3565  2793.3791 O.3      852 DT      0.0000
   1061 C2'       -4.5980    -6.0057  2793.9596 C.3      852 DT      0.0000
   1062 C1'       -4.2528    -5.4393  2792.6068 C.3      852 DT      0.0000
   1063 N1        -3.7761    -4.0595  2792.7035 N.am     852 DT      0.0000
   1064 C2        -2.4400    -3.8389  2792.5055 C.2      852 DT      0.0000
   1065 O2        -1.6491    -4.7488  2792.2673 O.2      852 DT      0.0000
   1066 N3        -2.0031    -2.5441  2792.5866 N.am     852 DT      0.0000
   1067 C4        -2.8291    -1.5044  2792.8425 C.2      852 DT      0.0000
   1068 O4        -2.2823    -0.3714  2792.8878 O.2      852 DT      0.0000
   1069 C5        -4.2248    -1.7543  2793.0422 C.2      852 DT      0.0000
   1070 C7        -5.1717    -0.6329  2793.3221 C.3      852 DT      0.0000
   1071 C6        -4.6432    -3.0238  2792.9607 C.2      852 DT      0.0000
   1072 H5'       -8.1681    -7.0873  2793.0105 H        852 DT      0.0000
   1073 H5''      -8.0786    -6.8831  2791.2359 H        852 DT      0.0000
   1074 H4'       -5.8902    -7.3443  2791.4901 H        852 DT      0.0000
   1075 H3'       -6.3913    -7.1563  2794.3244 H        852 DT      0.0000
   1076 H2'       -5.0440    -5.2518  2794.6084 H        852 DT      0.0000
   1077 H2''      -3.7209    -6.4514  2794.4288 H        852 DT      0.0000
   1078 H1'       -3.5563    -6.0763  2792.0615 H        852 DT      0.0000
   1079 H3        -1.0202    -2.3570  2792.4491 H        852 DT      0.0000
   1080 H6        -5.6920    -3.2404  2793.1011 H        852 DT      0.0000
   1081 H71       -5.7287    -0.3924  2792.4165 H        852 DT      0.0000
   1082 H72       -4.6108     0.2434  2793.6468 H        852 DT      0.0000
   1083 H73       -5.8663    -0.9313  2794.1074 H        852 DT      0.0000
   1084 P         -5.1498    -9.3458  2794.6591 P.3      853 DG      0.0000
   1085 OP1       -5.3003   -10.6825  2793.9440 O.co2    853 DG      0.0000
   1086 OP2       -6.3237    -8.9430  2795.4126 O.co2    853 DG      0.0000
   1087 O5'       -3.6588    -9.0817  2795.2686 O.3      853 DG      0.0000
   1088 C5'       -2.6645    -9.1548  2794.1780 C.3      853 DG      0.0000
   1089 C4'       -1.3767    -8.5872  2794.6980 C.3      853 DG      0.0000
   1090 O4'       -1.1808    -7.2101  2794.5175 O.3      853 DG      0.0000
   1091 C3'       -1.1707    -8.8715  2796.2061 C.3      853 DG      0.0000
   1092 O3'        0.1140    -9.5208  2796.3649 O.3      853 DG      0.0000
   1093 C2'       -1.3243    -7.5143  2796.8587 C.3      853 DG      0.0000
   1094 C1'       -0.7830    -6.5866  2795.7771 C.3      853 DG      0.0000
   1095 N9        -1.2849    -5.2185  2795.9466 N.ar     853 DG      0.0000
   1096 C8        -2.5443    -4.8046  2796.2828 C.ar     853 DG      0.0000
   1097 N7        -2.6881    -3.5005  2796.3686 N.ar     853 DG      0.0000
   1098 C5        -1.4211    -3.0247  2796.0386 C.ar     853 DG      0.0000
   1099 C6        -0.9212    -1.6944  2795.9442 C.2      853 DG      0.0000
   1100 O6        -1.5304    -0.6316  2796.1365 O.2      853 DG      0.0000
   1101 N1         0.4108    -1.6100  2795.6092 N.am     853 DG      0.0000
   1102 C2         1.1692    -2.7184  2795.3854 C.2      853 DG      0.0000
   1103 N2         2.4439    -2.4462  2795.0766 N.pl3    853 DG      0.0000
   1104 N3         0.7485    -3.9792  2795.4564 N.2      853 DG      0.0000
   1105 C4        -0.5526    -4.0640  2795.7830 C.ar     853 DG      0.0000
   1106 H5'       -2.5186   -10.1923  2793.8775 H        853 DG      0.0000
   1107 H5''      -3.0082    -8.5688  2793.3256 H        853 DG      0.0000
   1108 H4'       -0.5705    -9.0938  2794.1675 H        853 DG      0.0000
   1109 H3'       -1.9588    -9.5357  2796.5608 H        853 DG      0.0000
   1110 H2'       -2.3689    -7.2970  2797.0816 H        853 DG      0.0000
   1111 H2''      -0.7164    -7.4497  2797.7611 H        853 DG      0.0000
   1112 H1'        0.3053    -6.5732  2795.8360 H        853 DG      0.0000
   1113 H8        -3.3559    -5.4939  2796.4635 H        853 DG      0.0000
   1114 H1         0.8387    -0.6987  2795.5268 H        853 DG      0.0000
   1115 H21        2.7577    -1.4875  2795.0264 H        853 DG      0.0000
   1116 H22        3.0912    -3.1997  2794.8939 H        853 DG      0.0000
   1117 P          0.5951   -10.0542  2797.7534 P.3      854 DA      0.0000
   1118 OP1        0.2099   -11.4537  2798.1087 O.co2    854 DA      0.0000
   1119 OP2       -0.2606    -9.0851  2798.6491 O.co2    854 DA      0.0000
   1120 O5'        2.0892    -9.5847  2798.0025 O.3      854 DA      0.0000
   1121 C5'        3.0227    -9.2251  2796.9734 C.3      854 DA      0.0000
   1122 C4'        3.6632    -7.9306  2797.4477 C.3      854 DA      0.0000
   1123 O4'        2.7424    -6.8646  2797.3574 O.3      854 DA      0.0000
   1124 C3'        4.2063    -7.9285  2798.8768 C.3      854 DA      0.0000
   1125 O3'        5.5353    -7.3699  2798.9291 O.3      854 DA      0.0000
   1126 C2'        3.1675    -7.0729  2799.6122 C.3      854 DA      0.0000
   1127 C1'        2.9043    -6.0320  2798.5346 C.3      854 DA      0.0000
   1128 N9         1.6929    -5.2379  2798.7631 N.ar     854 DA      0.0000
   1129 C8         0.4059    -5.6418  2798.9788 C.ar     854 DA      0.0000
   1130 N7        -0.4427    -4.6516  2799.1438 N.ar     854 DA      0.0000
   1131 C5         0.3405    -3.5157  2799.0036 C.ar     854 DA      0.0000
   1132 C6         0.0145    -2.1426  2799.0515 C.ar     854 DA      0.0000
   1133 N6        -1.2129    -1.6654  2799.2713 N.pl3    854 DA      0.0000
   1134 N1         1.0633    -1.2880  2798.8617 N.ar     854 DA      0.0000
   1135 C2         2.3160    -1.7507  2798.6440 C.ar     854 DA      0.0000
   1136 N3         2.6965    -3.0263  2798.5857 N.ar     854 DA      0.0000
   1137 C4         1.6517    -3.8532  2798.7726 C.ar     854 DA      0.0000
   1138 H5'        2.5059    -9.0705  2796.0262 H        854 DA      0.0000
   1139 H5''       3.7803   -10.0014  2796.8656 H        854 DA      0.0000
   1140 H4'        4.4938    -7.7078  2796.7780 H        854 DA      0.0000
   1141 H3'        4.2093    -8.9419  2799.2782 H        854 DA      0.0000
   1142 H2'        2.2706    -7.6416  2799.8577 H        854 DA      0.0000
   1143 H2''       3.5971    -6.6148  2800.5031 H        854 DA      0.0000
   1144 H1'        3.7692    -5.3786  2798.4201 H        854 DA      0.0000
   1145 H8         0.1123    -6.6806  2799.0109 H        854 DA      0.0000
   1146 H2         3.0880    -1.0087  2798.5026 H        854 DA      0.0000
   1147 H61       -2.0665    -2.1965  2799.1739 H        854 DA      0.0000
   1148 H62       -1.3836    -0.6848  2799.0998 H        854 DA      0.0000
   1149 P          6.6304    -7.8126  2800.0705 P.3      855 DA      0.0000
   1150 OP1        7.8314    -8.4357  2799.4035 O.co2    855 DA      0.0000
   1151 OP2        5.8217    -8.7277  2800.9014 O.co2    855 DA      0.0000
   1152 O5'        7.1621    -6.4052  2800.6014 O.3      855 DA      0.0000
   1153 C5'        7.8320    -5.4530  2799.7770 C.3      855 DA      0.0000
   1154 C4'        7.5064    -4.0647  2800.2993 C.3      855 DA      0.0000
   1155 O4'        6.1244    -3.8442  2800.3275 O.3      855 DA      0.0000
   1156 C3'        8.0487    -3.6861  2801.6666 C.3      855 DA      0.0000
   1157 O3'        8.9751    -2.6029  2801.5888 O.3      855 DA      0.0000
   1158 C2'        6.7885    -3.4080  2802.4954 C.3      855 DA      0.0000
   1159 C1'        5.7521    -3.0522  2801.5016 C.3      855 DA      0.0000
   1160 N9         4.3314    -3.3400  2801.7696 N.ar     855 DA      0.0000
   1161 C8         3.6804    -4.5444  2801.8848 C.ar     855 DA      0.0000
   1162 N7         2.3836    -4.4396  2802.0541 N.ar     855 DA      0.0000
   1163 C5         2.1542    -3.0680  2802.0171 C.ar     855 DA      0.0000
   1164 C6         0.9588    -2.3035  2802.1376 C.ar     855 DA      0.0000
   1165 N6        -0.2570    -2.7999  2802.3292 N.pl3    855 DA      0.0000
   1166 N1         1.1127    -0.9432  2802.0394 N.ar     855 DA      0.0000
   1167 C2         2.3483    -0.3954  2801.8503 C.ar     855 DA      0.0000
   1168 N3         3.4999    -1.0481  2801.7425 N.ar     855 DA      0.0000
   1169 C4         3.3330    -2.3828  2801.8343 C.ar     855 DA      0.0000
   1170 H5'        7.4888    -5.5499  2798.7470 H        855 DA      0.0000
   1171 H5''       8.9082    -5.6197  2799.8230 H        855 DA      0.0000
   1172 H4'        7.9244    -3.3538  2799.5866 H        855 DA      0.0000
   1173 H3'        8.5595    -4.5510  2802.0899 H        855 DA      0.0000
   1174 H2'        6.4942    -4.2954  2803.0557 H        855 DA      0.0000
   1175 H2''       6.9612    -2.5735  2803.1750 H        855 DA      0.0000
   1176 H1'        5.8532    -1.9951  2801.2555 H        855 DA      0.0000
   1177 H8         4.1917    -5.4946  2801.8400 H        855 DA      0.0000
   1178 H2         2.3944     0.6814  2801.7811 H        855 DA      0.0000
   1179 H61       -0.4084    -3.7437  2802.6554 H        855 DA      0.0000
   1180 H62       -1.0581    -2.2139  2802.1424 H        855 DA      0.0000
   1181 P         10.2746    -2.4001  2802.5450 P.3      856 DT      0.0000
   1182 OP1       11.4890    -1.9377  2801.7477 O.co2    856 DT      0.0000
   1183 OP2       10.4940    -3.5726  2803.3656 O.co2    856 DT      0.0000
   1184 O5'        9.8737    -1.0281  2803.3587 O.3      856 DT      0.0000
   1185 C5'        9.2237    -0.0748  2802.4136 C.3      856 DT      0.0000
   1186 C4'        8.0782     0.5086  2803.2014 C.3      856 DT      0.0000
   1187 O4'        7.0078    -0.3887  2803.3933 O.3      856 DT      0.0000
   1188 C3'        8.5043     0.9365  2804.6180 C.3      856 DT      0.0000
   1189 O3'        8.7637     2.3281  2804.6196 O.3      856 DT      0.0000
   1190 C2'        7.3497     0.4977  2805.5152 C.3      856 DT      0.0000
   1191 C1'        6.2713     0.2032  2804.5506 C.3      856 DT      0.0000
   1192 N1         5.2095    -0.7306  2804.8903 N.am     856 DT      0.0000
   1193 C2         3.9292    -0.2034  2805.0283 C.2      856 DT      0.0000
   1194 O2         3.7559     1.0053  2804.9403 O.2      856 DT      0.0000
   1195 N3         2.9030    -1.0624  2805.2823 N.am     856 DT      0.0000
   1196 C4         3.0822    -2.4108  2805.4024 C.2      856 DT      0.0000
   1197 O4         2.0750    -3.1453  2805.6576 O.2      856 DT      0.0000
   1198 C5         4.4063    -2.9335  2805.2308 C.2      856 DT      0.0000
   1199 C7         4.6547    -4.4139  2805.3184 C.3      856 DT      0.0000
   1200 C6         5.4146    -2.0822  2804.9751 C.2      856 DT      0.0000
   1201 H5'        9.9219     0.7060  2802.1120 H        856 DT      0.0000
   1202 H5''       8.8491    -0.6059  2801.5386 H        856 DT      0.0000
   1203 H4'        7.7048     1.3854  2802.6722 H        856 DT      0.0000
   1204 H3'        9.4088     0.3988  2804.9023 H        856 DT      0.0000
   1205 H2'        7.6152    -0.3904  2806.0886 H        856 DT      0.0000
   1206 H2''       7.0548     1.3083  2806.1816 H        856 DT      0.0000
   1207 H1'        5.8205     1.1436  2804.2333 H        856 DT      0.0000
   1208 H3         1.9712    -0.6866  2805.3860 H        856 DT      0.0000
   1209 H6         6.4111    -2.4736  2804.8329 H        856 DT      0.0000
   1210 H71        3.7175    -4.9281  2805.5314 H        856 DT      0.0000
   1211 H72        5.0575    -4.7711  2804.3706 H        856 DT      0.0000
   1212 H73        5.3694    -4.6158  2806.1162 H        856 DT      0.0000
   1213 P          9.4158     3.1997  2805.7263 P.3      857 DT      0.0000
   1214 OP1       10.0085     4.4953  2805.1142 O.co2    857 DT      0.0000
   1215 OP2       10.4649     2.3572  2806.3562 O.co2    857 DT      0.0000
   1216 O5'        8.1812     3.7184  2806.6086 O.3      857 DT      0.0000
   1217 C5'        7.3576     4.6806  2805.8968 C.3      857 DT      0.0000
   1218 C4'        6.0336     4.7685  2806.5730 C.3      857 DT      0.0000
   1219 O4'        5.2949     3.5534  2806.5496 O.3      857 DT      0.0000
   1220 C3'        6.0990     5.2183  2808.0396 C.3      857 DT      0.0000
   1221 O3'        5.0883     6.1727  2808.3036 O.3      857 DT      0.0000
   1222 C2'        5.7762     3.8964  2808.7759 C.3      857 DT      0.0000
   1223 C1'        4.6506     3.4356  2807.8724 C.3      857 DT      0.0000
   1224 N1         4.2683     2.0677  2808.1701 N.am     857 DT      0.0000
   1225 C2         2.9197     1.7554  2808.2249 C.2      857 DT      0.0000
   1226 O2         2.0927     2.6488  2808.0364 O.2      857 DT      0.0000
   1227 N3         2.5659     0.4625  2808.4908 N.am     857 DT      0.0000
   1228 C4         3.4905    -0.5148  2808.6978 C.2      857 DT      0.0000
   1229 O4         3.0883    -1.6924  2808.9211 O.2      857 DT      0.0000
   1230 C5         4.8751    -0.1829  2808.6327 C.2      857 DT      0.0000
   1231 C7         5.9539    -1.2051  2808.8427 C.3      857 DT      0.0000
   1232 C6         5.2048     1.0917  2808.3716 C.2      857 DT      0.0000
   1233 H5'        7.8412     5.6574  2805.9092 H        857 DT      0.0000
   1234 H5''       7.2208     4.3533  2804.8661 H        857 DT      0.0000
   1235 H4'        5.4463     5.5123  2806.0345 H        857 DT      0.0000
   1236 H3'        7.0877     5.5950  2808.3020 H        857 DT      0.0000
   1237 H2'        6.6185     3.2047  2808.7747 H        857 DT      0.0000
   1238 H2''       5.4194     4.0841  2809.7886 H        857 DT      0.0000
   1239 H1'        3.7930     4.1041  2807.9480 H        857 DT      0.0000
   1240 H3         1.5855     0.2242  2808.5352 H        857 DT      0.0000
   1241 H6         6.2504     1.3568  2808.3185 H        857 DT      0.0000
   1242 H71        5.5011    -2.1764  2809.0416 H        857 DT      0.0000
   1243 H72        6.5724    -1.2693  2807.9474 H        857 DT      0.0000
   1244 H73        6.5722    -0.9118  2809.6911 H        857 DT      0.0000
   1245 P          5.0234     7.6181  2808.9116 P.3      858 DC      0.0000
   1246 OP1        4.7335     8.6552  2807.8436 O.co2    858 DC      0.0000
   1247 OP2        6.2899     7.7892  2809.6465 O.co2    858 DC      0.0000
   1248 O5'        3.6332     7.4053  2809.7376 O.3      858 DC      0.0000
   1249 C5'        2.6990     6.8979  2808.7153 C.3      858 DC      0.0000
   1250 C4'        1.4008     6.6043  2809.4118 C.3      858 DC      0.0000
   1251 O4'        1.2196     5.2443  2809.6588 O.3      858 DC      0.0000
   1252 C3'        1.1692     7.3806  2810.7033 C.3      858 DC      0.0000
   1253 O3'       -0.0425     8.1197  2810.6236 O.3      858 DC      0.0000
   1254 C2'        1.2733     6.2712  2811.7521 C.3      858 DC      0.0000
   1255 C1'        0.8163     5.0509  2811.0557 C.3      858 DC      0.0000
   1256 N1         1.4998     3.7969  2811.3878 N.am     858 DC      0.0000
   1257 C2         0.6750     2.7037  2811.6436 C.2      858 DC      0.0000
   1258 O2        -0.5549     2.8136  2811.6480 O.2      858 DC      0.0000
   1259 N3         1.2826     1.5033  2811.9174 N.2      858 DC      0.0000
   1260 C4         2.6403     1.3737  2811.9075 C.2      858 DC      0.0000
   1261 N4         3.1330     0.1714  2812.1843 N.pl3    858 DC      0.0000
   1262 C5         3.4635     2.4871  2811.6295 C.2      858 DC      0.0000
   1263 C6         2.8516     3.6596  2811.3647 C.2      858 DC      0.0000
   1264 H5'        2.5464     7.6505  2807.9417 H        858 DC      0.0000
   1265 H5''       3.0958     5.9851  2808.2711 H        858 DC      0.0000
   1266 H4'        0.6078     6.9021  2808.7259 H        858 DC      0.0000
   1267 H3'        1.9955     8.0769  2810.8466 H        858 DC      0.0000
   1268 H2'        2.3033     6.1576  2812.0900 H        858 DC      0.0000
   1269 H2''       0.6209     6.4893  2812.5976 H        858 DC      0.0000
   1270 H1'       -0.2648     4.9383  2811.1366 H        858 DC      0.0000
   1271 H5         4.5402     2.4030  2811.6289 H        858 DC      0.0000
   1272 H6         3.4580     4.5207  2811.1256 H        858 DC      0.0000
   1273 H41        2.5083    -0.5968  2812.3835 H        858 DC      0.0000
   1274 H42        4.1324     0.0256  2812.1956 H        858 DC      0.0000
   1275 P         -0.4761     9.3602  2811.5757 P.3      859 DA      0.0000
   1276 OP1       -1.4512    10.2084  2810.7819 O.co2    859 DA      0.0000
   1277 OP2        0.7467    10.1132  2811.9212 O.co2    859 DA      0.0000
   1278 O5'       -1.1844     8.6362  2812.8727 O.3      859 DA      0.0000
   1279 C5'       -2.2522     7.6844  2812.5775 C.3      859 DA      0.0000
   1280 C4'       -2.7325     7.0331  2813.8327 C.3      859 DA      0.0000
   1281 O4'       -2.2106     5.7231  2814.0749 O.3      859 DA      0.0000
   1282 C3'       -2.3834     7.7676  2815.1380 C.3      859 DA      0.0000
   1283 O3'       -3.2617     7.3082  2816.1679 O.3      859 DA      0.0000
   1284 C2'       -0.9547     7.2293  2815.3526 C.3      859 DA      0.0000
   1285 C1'       -1.2974     5.7469  2815.1693 C.3      859 DA      0.0000
   1286 N9        -0.0671     4.9795  2815.0750 N.ar     859 DA      0.0000
   1287 C8         1.2321     5.3901  2814.9591 C.ar     859 DA      0.0000
   1288 N7         2.1252     4.4170  2814.9405 N.ar     859 DA      0.0000
   1289 C5         1.3480     3.2724  2815.0481 C.ar     859 DA      0.0000
   1290 C6         1.6842     1.8966  2815.0826 C.ar     859 DA      0.0000
   1291 N6         2.9147     1.4239  2814.9973 N.pl3    859 DA      0.0000
   1292 N1         0.6409     1.0257  2815.2152 N.ar     859 DA      0.0000
   1293 C2        -0.6513     1.4723  2815.2954 C.ar     859 DA      0.0000
   1294 N3        -1.0449     2.7433  2815.2655 N.ar     859 DA      0.0000
   1295 C4         0.0036     3.5937  2815.1425 C.ar     859 DA      0.0000
   1296 H5'       -3.0821     8.2111  2812.1063 H        859 DA      0.0000
   1297 H5''      -1.8765     6.9210  2811.8962 H        859 DA      0.0000
   1298 H4'       -3.8180     6.9544  2813.7738 H        859 DA      0.0000
   1299 H3'       -2.4068     8.8513  2815.0243 H        859 DA      0.0000
   1300 H2'       -0.2531     7.5928  2814.6018 H        859 DA      0.0000
   1301 H2''      -0.5992     7.4341  2816.3625 H        859 DA      0.0000
   1302 H1'       -1.8321     5.4144  2816.0589 H        859 DA      0.0000
   1303 H8         1.5074     6.4320  2814.8881 H        859 DA      0.0000
   1304 H2        -1.4230     0.7230  2815.3918 H        859 DA      0.0000
   1305 H61        3.3368     0.5241  2815.1774 H        859 DA      0.0000
   1306 H62        3.5806     2.1149  2814.6826 H        859 DA      0.0000
   1307 P         -4.7512     7.8758  2816.3084 P.3      860 DC      0.0000
   1308 OP1       -5.2531     8.5230  2815.0633 O.co2    860 DC      0.0000
   1309 OP2       -4.6167     8.8401  2817.4513 O.co2    860 DC      0.0000
   1310 O5'       -5.6119     6.5744  2816.5915 O.3      860 DC      0.0000
   1311 C5'       -6.0515     5.7058  2815.5038 C.3      860 DC      0.0000
   1312 C4'       -6.1309     4.3470  2816.2088 C.3      860 DC      0.0000
   1313 O4'       -4.8134     3.9579  2816.5208 O.3      860 DC      0.0000
   1314 C3'       -6.9140     4.3778  2817.5187 C.3      860 DC      0.0000
   1315 O3'       -7.9375     3.3593  2817.5866 O.3      860 DC      0.0000
   1316 C2'       -5.8342     4.2271  2818.6009 C.3      860 DC      0.0000
   1317 C1'       -4.8171     3.4003  2817.9247 C.3      860 DC      0.0000
   1318 N1        -3.4027     3.4915  2818.2775 N.am     860 DC      0.0000
   1319 C2        -2.7067     2.2844  2818.2506 C.2      860 DC      0.0000
   1320 O2        -3.2550     1.2092  2818.0437 O.2      860 DC      0.0000
   1321 N3        -1.3710     2.3275  2818.5038 N.2      860 DC      0.0000
   1322 C4        -0.7117     3.4880  2818.7371 C.2      860 DC      0.0000
   1323 N4         0.5970     3.4019  2818.9680 N.pl3    860 DC      0.0000
   1324 C5        -1.4306     4.7149  2818.7437 C.2      860 DC      0.0000
   1325 C6        -2.7483     4.6646  2818.4942 C.2      860 DC      0.0000
   1326 H5'       -7.0244     6.0117  2815.1190 H        860 DC      0.0000
   1327 H5''      -5.3104     5.6831  2814.7048 H        860 DC      0.0000
   1328 H4'       -6.5766     3.6142  2815.5361 H        860 DC      0.0000
   1329 H3'       -7.3837     5.3558  2817.6246 H        860 DC      0.0000
   1330 H2'       -5.4265     5.1964  2818.8879 H        860 DC      0.0000
   1331 H2''      -6.2342     3.7067  2819.4711 H        860 DC      0.0000
   1332 H1'       -5.1323     2.3570  2817.9114 H        860 DC      0.0000
   1333 H5        -0.9342     5.6533  2818.9422 H        860 DC      0.0000
   1334 H6        -3.3088     5.5873  2818.4645 H        860 DC      0.0000
   1335 H41        1.0535     2.5010  2818.9570 H        860 DC      0.0000
   1336 H42        1.1330     4.2375  2819.1542 H        860 DC      0.0000
   1337 P          7.1883    -4.5138  2820.5461 P.3      860 DG      0.0000
   1338 OP1        8.4802    -5.2459  2820.7249 O.co2    860 DG      0.0000
   1339 OP2        7.2527    -3.4468  2819.4613 O.co2    860 DG      0.0000
   1340 O5'        5.9694    -5.6003  2820.3389 O.3      860 DG      0.0000
   1341 C5'        5.0223    -5.8287  2821.4346 C.3      860 DG      0.0000
   1342 C4'        3.6462    -6.0172  2820.8003 C.3      860 DG      0.0000
   1343 O4'        2.9422    -4.8091  2820.7045 O.3      860 DG      0.0000
   1344 C3'        3.6747    -6.6099  2819.3940 C.3      860 DG      0.0000
   1345 O3'        2.6219    -7.5650  2819.1270 O.3      860 DG      0.0000
   1346 C2'        3.5522    -5.3687  2818.4917 C.3      860 DG      0.0000
   1347 C1'        2.6065    -4.5106  2819.3155 C.3      860 DG      0.0000
   1348 N9         2.8157    -3.0785  2819.0422 N.ar     860 DG      0.0000
   1349 C8         4.0085    -2.4135  2818.8856 C.ar     860 DG      0.0000
   1350 N7         3.8772    -1.1320  2818.6672 N.ar     860 DG      0.0000
   1351 C5         2.5019    -0.9329  2818.6920 C.ar     860 DG      0.0000
   1352 C6         1.7218     0.2438  2818.5355 C.2      860 DG      0.0000
   1353 O6         2.1453     1.3917  2818.3387 O.2      860 DG      0.0000
   1354 N1         0.3668     0.0393  2818.6224 N.am     860 DG      0.0000
   1355 C2        -0.1763    -1.1830  2818.8431 C.2      860 DG      0.0000
   1356 N2        -1.5043    -1.2273  2818.9064 N.pl3    860 DG      0.0000
   1357 N3         0.5116    -2.3204  2819.0008 N.2      860 DG      0.0000
   1358 C4         1.8410    -2.1190  2818.9175 C.ar     860 DG      0.0000
   1359 H5'        5.3032    -6.7220  2821.9924 H        860 DG      0.0000
   1360 H5''       5.0092    -4.9651  2822.0995 H        860 DG      0.0000
   1361 H4'        3.0724    -6.6906  2821.4370 H        860 DG      0.0000
   1362 H3'        4.6413    -7.0839  2819.2235 H        860 DG      0.0000
   1363 H2'        4.5160    -4.8799  2818.3490 H        860 DG      0.0000
   1364 H2''       3.1039    -5.6291  2817.5330 H        860 DG      0.0000
   1365 H1'        1.5721    -4.7863  2819.1103 H        860 DG      0.0000
   1366 H8         4.9682    -2.9060  2818.9383 H        860 DG      0.0000
   1367 H1        -0.2504     0.8318  2818.5176 H        860 DG      0.0000
   1368 H21       -2.0439    -0.3813  2818.7913 H        860 DG      0.0000
   1369 H22       -1.9730    -2.1069  2819.0696 H        860 DG      0.0000
   1370 P          2.1322    -7.6496  2817.6035 P.3      859 DT      0.0000
   1371 OP1        1.5962    -9.0005  2817.2126 O.co2    859 DT      0.0000
   1372 OP2        3.4060    -7.3536  2816.9030 O.co2    859 DT      0.0000
   1373 O5'        0.9813    -6.5425  2817.4726 O.3      859 DT      0.0000
   1374 C5'       -0.3890    -6.9813  2817.7403 C.3      859 DT      0.0000
   1375 C4'       -1.3373    -6.0771  2816.9832 C.3      859 DT      0.0000
   1376 O4'       -0.9091    -4.7272  2816.9559 O.3      859 DT      0.0000
   1377 C3'       -1.5150    -6.4837  2815.5285 C.3      859 DT      0.0000
   1378 O3'       -2.8621    -6.3239  2815.0334 O.3      859 DT      0.0000
   1379 C2'       -0.5384    -5.5827  2814.8057 C.3      859 DT      0.0000
   1380 C1'       -0.7649    -4.2971  2815.5838 C.3      859 DT      0.0000
   1381 N1         0.4557    -3.4896  2815.4324 N.am     859 DT      0.0000
   1382 C2         0.2981    -2.1115  2815.5392 C.2      859 DT      0.0000
   1383 O2        -0.8118    -1.6256  2815.7290 O.2      859 DT      0.0000
   1384 N3         1.4225    -1.3436  2815.4191 N.am     859 DT      0.0000
   1385 C4         2.6506    -1.8926  2815.2015 C.2      859 DT      0.0000
   1386 O4         3.6412    -1.0951  2815.1039 O.2      859 DT      0.0000
   1387 C5         2.7805    -3.3069  2815.0951 C.2      859 DT      0.0000
   1388 C7         4.1306    -3.9234  2814.8662 C.3      859 DT      0.0000
   1389 C6         1.6789    -4.0520  2815.2169 C.2      859 DT      0.0000
   1390 H5'       -0.5174    -8.0110  2817.4065 H        859 DT      0.0000
   1391 H5''      -0.5933    -6.9143  2818.8089 H        859 DT      0.0000
   1392 H4'       -2.3111    -6.1174  2817.4712 H        859 DT      0.0000
   1393 H3'       -1.2066    -7.5218  2815.4045 H        859 DT      0.0000
   1394 H2'        0.4879    -5.9383  2814.8972 H        859 DT      0.0000
   1395 H2''      -0.8187    -5.4614  2813.7593 H        859 DT      0.0000
   1396 H1'       -1.6482    -3.7632  2815.2331 H        859 DT      0.0000
   1397 H3         1.3407    -0.3397  2815.4937 H        859 DT      0.0000
   1398 H6         1.7589    -5.1264  2815.1427 H        859 DT      0.0000
   1399 H71        4.8826    -3.1374  2814.7975 H        859 DT      0.0000
   1400 H72        4.3728    -4.5860  2815.6970 H        859 DT      0.0000
   1401 H73        4.1165    -4.4949  2813.9380 H        859 DT      0.0000
   1402 P         -3.2668    -7.7328  2814.2550 P.3      858 DG      0.0000
   1403 OP1       -3.9934    -8.7049  2815.1262 O.co2    858 DG      0.0000
   1404 OP2       -1.9038    -8.1581  2813.8495 O.co2    858 DG      0.0000
   1405 O5'       -4.3063    -7.1796  2813.1742 O.3      858 DG      0.0000
   1406 C5'       -5.6591    -6.8738  2813.5977 C.3      858 DG      0.0000
   1407 C4'       -5.8916    -5.4362  2813.1499 C.3      858 DG      0.0000
   1408 O4'       -4.7401    -4.6622  2813.4206 O.3      858 DG      0.0000
   1409 C3'       -6.2079    -5.2826  2811.6622 C.3      858 DG      0.0000
   1410 O3'       -7.4354    -4.6074  2811.4537 O.3      858 DG      0.0000
   1411 C2'       -4.9801    -4.6004  2811.0855 C.3      858 DG      0.0000
   1412 C1'       -4.4309    -3.8435  2812.2716 C.3      858 DG      0.0000
   1413 N9        -2.9829    -3.6555  2812.1481 N.ar     858 DG      0.0000
   1414 C8        -2.0148    -4.6062  2811.9892 C.ar     858 DG      0.0000
   1415 N7        -0.8016    -4.1159  2811.9111 N.ar     858 DG      0.0000
   1416 C5        -0.9824    -2.7428  2812.0487 C.ar     858 DG      0.0000
   1417 C6        -0.0610    -1.6625  2812.0581 C.2      858 DG      0.0000
   1418 O6         1.1600    -1.7295  2811.9591 O.2      858 DG      0.0000
   1419 N1        -0.6315    -0.4303  2812.2071 N.am     858 DG      0.0000
   1420 C2        -1.9890    -0.2654  2812.3400 C.2      858 DG      0.0000
   1421 N2        -2.4124     0.9917  2812.4756 N.pl3    858 DG      0.0000
   1422 N3        -2.9082    -1.2360  2812.3443 N.2      858 DG      0.0000
   1423 C4        -2.3281    -2.4511  2812.1936 C.ar     858 DG      0.0000
   1424 H5'       -6.3722    -7.5450  2813.1189 H        858 DG      0.0000
   1425 H5''      -5.7406    -6.9487  2814.6820 H        858 DG      0.0000
   1426 H4'       -6.7238    -5.0274  2813.7229 H        858 DG      0.0000
   1427 H3'       -6.2851    -6.2774  2811.2236 H        858 DG      0.0000
   1428 H2'       -4.2600    -5.3321  2810.7191 H        858 DG      0.0000
   1429 H2''      -5.2636    -3.9113  2810.2899 H        858 DG      0.0000
   1430 H1'       -4.9264    -2.8765  2812.3587 H        858 DG      0.0000
   1431 H8        -2.2290    -5.6632  2811.9331 H        858 DG      0.0000
   1432 H1        -0.0363     0.3856  2812.2200 H        858 DG      0.0000
   1433 H21       -1.7469     1.7514  2812.4766 H        858 DG      0.0000
   1434 H22       -3.3986     1.1841  2812.5774 H        858 DG      0.0000
   1435 P         -7.8982    -3.3694  2810.5874 P.3      857 DA      0.0000
   1436 OP1       -8.9163    -2.5292  2811.3688 O.co2    857 DA      0.0000
   1437 OP2       -8.5206    -3.9485  2809.3947 O.co2    857 DA      0.0000
   1438 O5'       -6.5856    -2.4204  2810.4126 O.3      857 DA      0.0000
   1439 C5'       -6.4086    -1.5189  2811.5691 C.3      857 DA      0.0000
   1440 C4'       -6.5366    -0.1114  2811.0412 C.3      857 DA      0.0000
   1441 O4'       -5.2888     0.4950  2810.8190 O.3      857 DA      0.0000
   1442 C3'       -7.2671    -0.0419  2809.7007 C.3      857 DA      0.0000
   1443 O3'       -8.1566     1.0464  2809.6256 O.3      857 DA      0.0000
   1444 C2'       -6.1228    -0.0885  2808.7042 C.3      857 DA      0.0000
   1445 C1'       -4.9068     0.4184  2809.4280 C.3      857 DA      0.0000
   1446 N9        -3.7384    -0.4496  2809.2025 N.ar     857 DA      0.0000
   1447 C8        -3.6965    -1.8145  2809.0161 C.ar     857 DA      0.0000
   1448 N7        -2.4912    -2.2975  2808.8203 N.ar     857 DA      0.0000
   1449 C5        -1.6801    -1.1730  2808.9071 C.ar     857 DA      0.0000
   1450 C6        -0.2778    -1.0204  2808.8015 C.ar     857 DA      0.0000
   1451 N6         0.5571    -2.0223  2808.5890 N.pl3    857 DA      0.0000
   1452 N1         0.1971     0.2498  2808.9252 N.ar     857 DA      0.0000
   1453 C2        -0.6420     1.3038  2809.1497 C.ar     857 DA      0.0000
   1454 N3        -1.9662     1.2280  2809.2656 N.ar     857 DA      0.0000
   1455 C4        -2.4263    -0.0392  2809.1295 C.ar     857 DA      0.0000
   1456 H5'       -7.1776    -1.7114  2812.3171 H        857 DA      0.0000
   1457 H5''      -5.4204    -1.6638  2812.0057 H        857 DA      0.0000
   1458 H4'       -7.0880     0.4841  2811.7689 H        857 DA      0.0000
   1459 H3'       -7.8475    -0.9576  2809.5876 H        857 DA      0.0000
   1460 H2'       -6.3435     0.5479  2807.8473 H        857 DA      0.0000
   1461 H2''      -5.9586    -1.1141  2808.3736 H        857 DA      0.0000
   1462 H1'       -4.6755     1.4215  2809.0698 H        857 DA      0.0000
   1463 H8        -4.5806    -2.4347  2809.0300 H        857 DA      0.0000
   1464 H2        -0.1932     2.2819  2809.2410 H        857 DA      0.0000
   1465 H61        1.5157    -1.9794  2808.9044 H        857 DA      0.0000
   1466 H62        0.2310    -2.8453  2808.1028 H        857 DA      0.0000
   1467 P         -8.5054     2.0322  2808.4410 P.3      856 DA      0.0000
   1468 OP1       -9.3526     3.2302  2808.9609 O.co2    856 DA      0.0000
   1469 OP2       -9.3412     1.2148  2807.5073 O.co2    856 DA      0.0000
   1470 O5'       -7.1516     2.6617  2807.9383 O.3      856 DA      0.0000
   1471 C5'       -6.7525     3.9710  2808.3941 C.3      856 DA      0.0000
   1472 C4'       -5.4546     4.3065  2807.6922 C.3      856 DA      0.0000
   1473 O4'       -4.5703     3.2289  2807.5714 O.3      856 DA      0.0000
   1474 C3'       -5.6507     4.8680  2806.2847 C.3      856 DA      0.0000
   1475 O3'       -5.2224     6.2426  2806.2532 O.3      856 DA      0.0000
   1476 C2'       -4.9313     3.8613  2805.3851 C.3      856 DA      0.0000
   1477 C1'       -3.8743     3.2933  2806.2829 C.3      856 DA      0.0000
   1478 N9        -3.4254     1.9376  2805.9833 N.ar     856 DA      0.0000
   1479 C8        -4.1716     0.7937  2805.7885 C.ar     856 DA      0.0000
   1480 N7        -3.4471    -0.2835  2805.5831 N.ar     856 DA      0.0000
   1481 C5        -2.1434     0.1669  2805.6576 C.ar     856 DA      0.0000
   1482 C6        -0.9055    -0.5010  2805.5241 C.ar     856 DA      0.0000
   1483 N6        -0.7889    -1.8029  2805.2810 N.pl3    856 DA      0.0000
   1484 N1         0.2046     0.2912  2805.6730 N.ar     856 DA      0.0000
   1485 C2         0.1177     1.6113  2805.9255 C.ar     856 DA      0.0000
   1486 N3        -1.0141     2.3083  2806.0644 N.ar     856 DA      0.0000
   1487 C4        -2.1060     1.5252  2805.9171 C.ar     856 DA      0.0000
   1488 H5'       -7.5166     4.7051  2808.1390 H        856 DA      0.0000
   1489 H5''      -6.5976     3.9567  2809.4729 H        856 DA      0.0000
   1490 H4'       -4.9541     5.0741  2808.2823 H        856 DA      0.0000
   1491 H3'       -6.7146     4.8365  2806.0496 H        856 DA      0.0000
   1492 H2'       -5.6147     3.0831  2805.0452 H        856 DA      0.0000
   1493 H2''      -4.4766     4.3678  2804.5338 H        856 DA      0.0000
   1494 H1'       -3.0227     3.9711  2806.3440 H        856 DA      0.0000
   1495 H8        -5.2515     0.7843  2805.8035 H        856 DA      0.0000
   1496 H2         1.0455     2.1552  2806.0246 H        856 DA      0.0000
   1497 H61        0.0825    -2.2205  2805.5750 H        856 DA      0.0000
   1498 H62       -1.5203    -2.3368  2804.8337 H        856 DA      0.0000
   1499 P         -5.3181     7.0579  2804.8682 P.3      855 DT      0.0000
   1500 OP1       -5.1737     8.5475  2804.9264 O.co2    855 DT      0.0000
   1501 OP2       -6.6315     6.5608  2804.3556 O.co2    855 DT      0.0000
   1502 O5'       -3.9217     6.4804  2804.1651 O.3      855 DT      0.0000
   1503 C5'       -2.8715     6.4256  2805.1774 C.3      855 DT      0.0000
   1504 C4'       -1.5415     6.4453  2804.4945 C.3      855 DT      0.0000
   1505 O4'       -0.9877     5.1762  2804.3140 O.3      855 DT      0.0000
   1506 C3'       -1.5508     7.1235  2803.1332 C.3      855 DT      0.0000
   1507 O3'       -0.3554     7.8669  2802.8659 O.3      855 DT      0.0000
   1508 C2'       -1.7687     5.8953  2802.2399 C.3      855 DT      0.0000
   1509 C1'       -0.8432     4.8828  2802.8799 C.3      855 DT      0.0000
   1510 N1        -1.3166     3.5048  2802.6499 N.am     855 DT      0.0000
   1511 C2        -0.3600     2.5123  2802.5283 C.2      855 DT      0.0000
   1512 O2         0.8424     2.7786  2802.5651 O.2      855 DT      0.0000
   1513 N3        -0.7894     1.2238  2802.3609 N.am     855 DT      0.0000
   1514 C4        -2.1110     0.9067  2802.3124 C.2      855 DT      0.0000
   1515 O4        -2.4176    -0.3088  2802.1269 O.2      855 DT      0.0000
   1516 C5        -3.0786     1.9395  2802.4608 C.2      855 DT      0.0000
   1517 C7        -4.5548     1.6248  2802.4087 C.3      855 DT      0.0000
   1518 C6        -2.6432     3.1918  2802.6338 C.2      855 DT      0.0000
   1519 H5'       -2.9559     7.2874  2805.8395 H        855 DT      0.0000
   1520 H5''      -2.9708     5.5081  2805.7574 H        855 DT      0.0000
   1521 H4'       -0.8592     7.0082  2805.1315 H        855 DT      0.0000
   1522 H3'       -2.4146     7.7843  2803.0612 H        855 DT      0.0000
   1523 H2'       -2.8056     5.5607  2802.2705 H        855 DT      0.0000
   1524 H2''      -1.4614     6.1047  2801.2153 H        855 DT      0.0000
   1525 H1'        0.1862     5.0137  2802.5459 H        855 DT      0.0000
   1526 H3        -0.1047     0.4867  2802.2708 H        855 DT      0.0000
   1527 H6        -3.3673     3.9824  2802.7651 H        855 DT      0.0000
   1528 H71       -4.9317     1.8134  2801.4035 H        855 DT      0.0000
   1529 H72       -5.0861     2.2569  2803.1202 H        855 DT      0.0000
   1530 H73       -4.7122     0.5772  2802.6652 H        855 DT      0.0000
   1531 P         -0.2555     8.5337  2801.3760 P.3      854 DT      0.0000
   1532 OP1       -0.2826    10.0561  2801.5240 O.co2    854 DT      0.0000
   1533 OP2       -1.5166     8.0685  2800.7062 O.co2    854 DT      0.0000
   1534 O5'        1.0578     8.0311  2800.7240 O.3      854 DT      0.0000
   1535 C5'        2.2234     7.6920  2801.4754 C.3      854 DT      0.0000
   1536 C4'        2.9724     6.6361  2800.7274 C.3      854 DT      0.0000
   1537 O4'        2.4293     5.3448  2800.6704 O.3      854 DT      0.0000
   1538 C3'        3.3531     6.9360  2799.2613 C.3      854 DT      0.0000
   1539 O3'        4.6180     6.2754  2799.1576 O.3      854 DT      0.0000
   1540 C2'        2.2499     6.1917  2798.4976 C.3      854 DT      0.0000
   1541 C1'        2.3301     4.8929  2799.2733 C.3      854 DT      0.0000
   1542 N1         1.1639     4.0113  2799.1671 N.am     854 DT      0.0000
   1543 C2         1.4466     2.6388  2799.1665 C.2      854 DT      0.0000
   1544 O2         2.6083     2.2284  2799.2095 O.2      854 DT      0.0000
   1545 N3         0.3821     1.7856  2799.1130 N.am     854 DT      0.0000
   1546 C4        -0.9090     2.2193  2799.0533 C.2      854 DT      0.0000
   1547 O4        -1.8276     1.3478  2798.9909 O.2      854 DT      0.0000
   1548 C5        -1.1673     3.6172  2799.0615 C.2      854 DT      0.0000
   1549 C7        -2.5970     4.1130  2799.0001 C.3      854 DT      0.0000
   1550 C6        -0.1230     4.4481  2799.1280 C.2      854 DT      0.0000
   1551 H5'        2.8526     8.5736  2801.5976 H        854 DT      0.0000
   1552 H5''       1.9312     7.3111  2802.4539 H        854 DT      0.0000
   1553 H4'        3.9202     6.5270  2801.2546 H        854 DT      0.0000
   1554 H3'        3.3982     8.0008  2799.0326 H        854 DT      0.0000
   1555 H2'        2.4887     6.0619  2797.4420 H        854 DT      0.0000
   1556 H2''       1.2812     6.6737  2798.6292 H        854 DT      0.0000
   1557 H1'        3.2327     4.3492  2798.9943 H        854 DT      0.0000
   1558 H3         0.5585     0.7912  2799.1179 H        854 DT      0.0000
   1559 H6        -0.3091     5.5116  2799.1517 H        854 DT      0.0000
   1560 H71       -3.2757     3.2615  2798.9513 H        854 DT      0.0000
   1561 H72       -2.7284     4.7333  2798.1135 H        854 DT      0.0000
   1562 H73       -2.8160     4.7015  2799.8911 H        854 DT      0.0000
   1563 P          5.6546     6.4237  2798.0113 P.3      853 DC      0.0000
   1564 OP1        7.0359     6.6713  2798.6205 O.co2    853 DC      0.0000
   1565 OP2        5.2272     7.6261  2797.2295 O.co2    853 DC      0.0000
   1566 O5'        5.5142     4.9788  2797.2719 O.3      853 DC      0.0000
   1567 C5'        6.1113     3.8537  2797.9964 C.3      853 DC      0.0000
   1568 C4'        6.6374     2.9105  2796.9459 C.3      853 DC      0.0000
   1569 O4'        5.7557     1.8397  2796.7006 O.3      853 DC      0.0000
   1570 C3'        6.9156     3.5435  2795.5815 C.3      853 DC      0.0000
   1571 O3'        8.0166     2.9712  2794.8722 O.3      853 DC      0.0000
   1572 C2'        5.5563     3.3499  2794.8954 C.3      853 DC      0.0000
   1573 C1'        5.1014     1.9981  2795.4419 C.3      853 DC      0.0000
   1574 N1         3.6245     2.0270  2795.5597 N.am     853 DC      0.0000
   1575 C2         2.9662     0.7982  2795.5770 C.2      853 DC      0.0000
   1576 O2         3.5954    -0.2665  2795.5083 O.2      853 DC      0.0000
   1577 N3         1.6015     0.8202  2795.6802 N.2      853 DC      0.0000
   1578 C4         0.9011     1.9823  2795.7510 C.2      853 DC      0.0000
   1579 N4        -0.4295     1.9519  2795.8529 N.pl3    853 DC      0.0000
   1580 C5         1.5977     3.2227  2795.7258 C.2      853 DC      0.0000
   1581 C6         2.9382     3.2002  2795.6322 C.2      853 DC      0.0000
   1582 H5'        6.9248     4.2029  2798.6324 H        853 DC      0.0000
   1583 H5''       5.3535     3.3545  2798.6003 H        853 DC      0.0000
   1584 H4'        7.5737     2.4918  2797.3147 H        853 DC      0.0000
   1585 H3'        7.0962     4.6099  2795.7157 H        853 DC      0.0000
   1586 H2'        5.6629     3.3209  2793.8110 H        853 DC      0.0000
   1587 H2''       4.8620     4.1364  2795.1913 H        853 DC      0.0000
   1588 H1'        5.4045     1.2015  2794.7626 H        853 DC      0.0000
   1589 H5         1.0624     4.1592  2795.7806 H        853 DC      0.0000
   1590 H6         3.4825     4.1329  2795.6141 H        853 DC      0.0000
   1591 H41       -0.9143     1.0661  2795.8736 H        853 DC      0.0000
   1592 H42       -0.9515     2.8147  2795.9093 H        853 DC      0.0000
   1593 P          8.1061     2.7552  2793.2402 P.3      852 DA      0.0000
   1594 OP1        9.5666     2.6781  2792.8507 O.co2    852 DA      0.0000
   1595 OP2        7.3680     3.9148  2792.6701 O.co2    852 DA      0.0000
   1596 O5'        7.4698     1.3005  2793.0747 O.3      852 DA      0.0000
   1597 C5'        8.2640     0.1410  2793.5401 C.3      852 DA      0.0000
   1598 C4'        7.7249    -0.9761  2792.6628 C.3      852 DA      0.0000
   1599 O4'        6.3304    -1.1715  2792.9302 O.3      852 DA      0.0000
   1600 C3'        7.7907    -0.6579  2791.1584 C.3      852 DA      0.0000
   1601 O3'        7.6434    -1.8277  2790.3694 O.3      852 DA      0.0000
   1602 C2'        6.4786     0.1258  2790.9709 C.3      852 DA      0.0000
   1603 C1'        5.5985    -0.9078  2791.7256 C.3      852 DA      0.0000
   1604 N9         4.3047    -0.2486  2791.8710 N.ar     852 DA      0.0000
   1605 C8         4.0808     1.1081  2791.9439 C.ar     852 DA      0.0000
   1606 N7         2.8143     1.4203  2792.0585 N.ar     852 DA      0.0000
   1607 C5         2.1655     0.1726  2792.0521 C.ar     852 DA      0.0000
   1608 C6         0.7869    -0.1615  2792.1521 C.ar     852 DA      0.0000
   1609 N6        -0.1897     0.7420  2792.2749 N.pl3    852 DA      0.0000
   1610 N1         0.5278    -1.4985  2792.1169 N.ar     852 DA      0.0000
   1611 C2         1.5186    -2.4159  2791.9980 C.ar     852 DA      0.0000
   1612 N3         2.8294    -2.1732  2791.9066 N.ar     852 DA      0.0000
   1613 C4         3.0727    -0.8512  2791.9341 C.ar     852 DA      0.0000
   1614 H5'        9.3298     0.2973  2793.3734 H        852 DA      0.0000
   1615 H5''       8.0648    -0.0650  2794.5917 H        852 DA      0.0000
   1616 H4'        8.2700    -1.8977  2792.8668 H        852 DA      0.0000
   1617 H3'        8.6718    -0.0756  2790.8888 H        852 DA      0.0000
   1618 H2'        6.4944     1.1035  2791.4526 H        852 DA      0.0000
   1619 H2''       6.2006     0.1997  2789.9196 H        852 DA      0.0000
   1620 H1'        5.4955    -1.8195  2791.1372 H        852 DA      0.0000
   1621 H8         4.8720     1.8425  2791.9099 H        852 DA      0.0000
   1622 H2         1.2167    -3.4525  2791.9748 H        852 DA      0.0000
   1623 H61        0.0335     1.7267  2792.2997 H        852 DA      0.0000
   1624 H62       -1.1512     0.4403  2792.3430 H        852 DA      0.0000
   1625 P          8.6920    -2.1747  2789.2284 P.3      851 DC      0.0000
   1626 OP1        9.7992    -2.8637  2790.0087 O.co2    851 DC      0.0000
   1627 OP2        9.1531    -0.9857  2788.5028 O.co2    851 DC      0.0000
   1628 O5'        7.7733    -3.1276  2788.2526 O.3      851 DC      0.0000
   1629 C5'        7.0882    -4.2544  2788.9216 C.3      851 DC      0.0000
   1630 C4'        5.7403    -4.4444  2788.2776 C.3      851 DC      0.0000
   1631 O4'        4.6934    -3.7224  2788.9147 O.3      851 DC      0.0000
   1632 C3'        5.7176    -4.0180  2786.7997 C.3      851 DC      0.0000
   1633 O3'        4.8439    -4.7933  2785.9884 O.3      851 DC      0.0000
   1634 C2'        5.1208    -2.5820  2786.9654 C.3      851 DC      0.0000
   1635 C1'        3.9334    -3.0945  2787.8610 C.3      851 DC      0.0000
   1636 N1         3.0693    -1.9679  2788.0989 N.am     851 DC      0.0000
   1637 C2         1.7423    -2.2087  2788.4160 C.2      851 DC      0.0000
   1638 O2         1.1462    -3.2825  2788.5565 O.2      851 DC      0.0000
   1639 N3         0.9244    -1.1311  2788.6142 N.2      851 DC      0.0000
   1640 C4         1.3782     0.1540  2788.4982 C.2      851 DC      0.0000
   1641 N4         0.5407     1.1803  2788.7143 N.pl3    851 DC      0.0000
   1642 C5         2.7423     0.3852  2788.1686 C.2      851 DC      0.0000
   1643 C6         3.5225    -0.6849  2787.9769 C.2      851 DC      0.0000
   1644 H5'        7.6801    -5.1629  2788.8101 H        851 DC      0.0000
   1645 H5''       6.9598    -4.0285  2789.9802 H        851 DC      0.0000
   1646 H4'        5.4928    -5.5049  2788.3243 H        851 DC      0.0000
   1647 H3'        6.7232    -3.9843  2786.3807 H        851 DC      0.0000
   1648 H2'        5.7877    -1.8922  2787.4825 H        851 DC      0.0000
   1649 H2''       4.7695    -2.1751  2786.0172 H        851 DC      0.0000
   1650 H1'        3.3801    -3.8594  2787.3161 H        851 DC      0.0000
   1651 H5         3.1339     1.3875  2788.0765 H        851 DC      0.0000
   1652 H6         4.5579    -0.5270  2787.7137 H        851 DC      0.0000
   1653 H41       -0.4240     1.0029  2788.9548 H        851 DC      0.0000
   1654 H42        0.8752     2.1301  2788.6364 H        851 DC      0.0000
   1655 P         -9.8223     1.9760  2822.5876 P.3      861 DG      0.0000
   1656 OP1      -10.9628     2.9252  2822.5861 O.co2    861 DG      0.0000
   1657 OP2       -8.8275     2.4803  2823.6433 O.co2    861 DG      0.0000
   1658 O5'      -10.1708     0.4339  2822.7660 O.3      861 DG      0.0000
   1659 C5'      -10.2320    -0.6052  2821.7660 C.3      861 DG      0.0000
   1660 C4'       -9.4273    -1.7874  2822.2648 C.3      861 DG      0.0000
   1661 O4'       -8.0811    -1.7279  2821.8457 O.3      861 DG      0.0000
   1662 C3'       -9.4046    -2.0502  2823.7570 C.3      861 DG      0.0000
   1663 O3'       -9.8131    -3.4093  2824.0690 O.3      861 DG      0.0000
   1664 C2'       -7.9811    -1.7394  2824.1789 C.3      861 DG      0.0000
   1665 C1'       -7.1788    -1.9812  2822.9232 C.3      861 DG      0.0000
   1666 N9        -6.0050    -1.0898  2822.8942 N.ar     861 DG      0.0000
   1667 C8        -5.9320     0.2639  2823.1231 C.ar     861 DG      0.0000
   1668 N7        -4.7181     0.7587  2823.0334 N.ar     861 DG      0.0000
   1669 C5        -3.9327    -0.3465  2822.7164 C.ar     861 DG      0.0000
   1670 C6        -2.5406    -0.4816  2822.4904 C.2      861 DG      0.0000
   1671 O6        -1.6763     0.3953  2822.5117 O.2      861 DG      0.0000
   1672 N1        -2.1168    -1.7514  2822.2089 N.am     861 DG      0.0000
   1673 C2        -2.9184    -2.7662  2822.1483 C.2      861 DG      0.0000
   1674 N2        -2.2735    -3.8270  2821.8515 N.pl3    861 DG      0.0000
   1675 N3        -4.3009    -2.7348  2822.3570 N.2      861 DG      0.0000
   1676 C4        -4.7088    -1.4871  2822.6296 C.ar     861 DG      0.0000
   1677 H5'      -11.2680    -0.9044  2821.6073 H        861 DG      0.0000
   1678 H5''      -9.8076    -0.2404  2820.8306 H        861 DG      0.0000
   1679 H4'       -9.8582    -2.6742  2821.8001 H        861 DG      0.0000
   1680 H3'      -10.0818    -1.3534  2824.2510 H        861 DG      0.0000
   1681 H2'       -7.8895    -0.7037  2824.5059 H        861 DG      0.0000
   1682 H2''      -7.6623    -2.4177  2824.9704 H        861 DG      0.0000
   1683 H1'       -6.8514    -3.0204  2822.8913 H        861 DG      0.0000
   1684 H8        -6.7967     0.8677  2823.3561 H        861 DG      0.0000
   1685 H1        -1.1327    -1.9044  2822.0405 H        861 DG      0.0000
   1686 H21       -1.2747    -3.7870  2821.7071 H        861 DG      0.0000
   1687 H22       -2.7620    -4.7063  2821.7610 H        861 DG      0.0000
   1688 P         -9.6166    -4.0521  2825.4975 P.3      862 DT      0.0000
   1689 OP1      -10.7506    -4.9023  2826.0092 O.co2    862 DT      0.0000
   1690 OP2       -9.6085    -2.8168  2826.4162 O.co2    862 DT      0.0000
   1691 O5'       -8.2162    -4.7161  2825.5261 O.3      862 DT      0.0000
   1692 C5'       -8.0132    -6.1488  2825.3821 C.3      862 DT      0.0000
   1693 C4'       -6.5106    -6.3290  2825.4396 C.3      862 DT      0.0000
   1694 O4'       -5.8191    -5.1306  2825.1645 O.3      862 DT      0.0000
   1695 C3'       -5.9422    -6.8055  2826.7524 C.3      862 DT      0.0000
   1696 O3'       -5.3728    -8.1094  2826.5642 O.3      862 DT      0.0000
   1697 C2'       -4.8792    -5.7795  2827.1446 C.3      862 DT      0.0000
   1698 C1'       -4.5074    -5.2302  2825.7918 C.3      862 DT      0.0000
   1699 N1        -3.9654    -3.8747  2825.8885 N.am     862 DT      0.0000
   1700 C2        -2.6204    -3.7181  2825.6906 C.2      862 DT      0.0000
   1701 O2        -1.8738    -4.6647  2825.4524 O.2      862 DT      0.0000
   1702 N3        -2.1222    -2.4456  2825.7716 N.am     862 DT      0.0000
   1703 C4        -2.8976    -1.3677  2826.0275 C.2      862 DT      0.0000
   1704 O4        -2.2974    -0.2621  2826.0728 O.2      862 DT      0.0000
   1705 C5        -4.3037    -1.5507  2826.2272 C.2      862 DT      0.0000
   1706 C7        -5.1960    -0.3854  2826.5071 C.3      862 DT      0.0000
   1707 C6        -4.7822    -2.7988  2826.1457 C.2      862 DT      0.0000
   1708 H5'       -8.4969    -6.6895  2826.1956 H        862 DT      0.0000
   1709 H5''      -8.3978    -6.4898  2824.4209 H        862 DT      0.0000
   1710 H4'       -6.2339    -7.0549  2824.6751 H        862 DT      0.0000
   1711 H3'       -6.7254    -6.8432  2827.5095 H        862 DT      0.0000
   1712 H2'       -5.2889    -5.0052  2827.7934 H        862 DT      0.0000
   1713 H2''      -4.0245    -6.2665  2827.6138 H        862 DT      0.0000
   1714 H1'       -3.8422    -5.8997  2825.2465 H        862 DT      0.0000
   1715 H3        -1.1315    -2.3056  2825.6341 H        862 DT      0.0000
   1716 H6        -5.8401    -2.9651  2826.2861 H        862 DT      0.0000
   1717 H71       -5.7409    -0.1186  2825.6016 H        862 DT      0.0000
   1718 H72       -4.5939     0.4631  2826.8319 H        862 DT      0.0000
   1719 H73       -5.9040    -0.6503  2827.2924 H        862 DT      0.0000
   1720 P         -5.5898    -9.0895  2827.8441 P.3      863 DG      0.0000
   1721 OP1       -5.8039   -10.4175  2827.1290 O.co2    863 DG      0.0000
   1722 OP2       -6.7432    -8.6311  2828.5976 O.co2    863 DG      0.0000
   1723 O5'       -4.0879    -8.8968  2828.4536 O.3      863 DG      0.0000
   1724 C5'       -3.0982    -9.0172  2827.3630 C.3      863 DG      0.0000
   1725 C4'       -1.7848    -8.5117  2827.8831 C.3      863 DG      0.0000
   1726 O4'       -1.5234    -7.1456  2827.7025 O.3      863 DG      0.0000
   1727 C3'       -1.5926    -8.8056  2829.3911 C.3      863 DG      0.0000
   1728 O3'       -0.3404    -9.5154  2829.5500 O.3      863 DG      0.0000
   1729 C2'       -1.6813    -7.4425  2830.0437 C.3      863 DG      0.0000
   1730 C1'       -1.0964    -6.5418  2828.9621 C.3      863 DG      0.0000
   1731 N9        -1.5324    -5.1512  2829.1317 N.ar     863 DG      0.0000
   1732 C8        -2.7707    -4.6778  2829.4679 C.ar     863 DG      0.0000
   1733 N7        -2.8521    -3.3682  2829.5536 N.ar     863 DG      0.0000
   1734 C5        -1.5638    -2.9535  2829.2236 C.ar     863 DG      0.0000
   1735 C6        -1.0010    -1.6485  2829.1293 C.2      863 DG      0.0000
   1736 O6        -1.5588    -0.5579  2829.3216 O.2      863 DG      0.0000
   1737 N1         0.3336    -1.6277  2828.7942 N.am     863 DG      0.0000
   1738 C2         1.0382    -2.7711  2828.5704 C.2      863 DG      0.0000
   1739 N2         2.3244    -2.5600  2828.2616 N.pl3    863 DG      0.0000
   1740 N3         0.5578    -4.0104  2828.6415 N.2      863 DG      0.0000
   1741 C4        -0.7458    -4.0330  2828.9680 C.ar     863 DG      0.0000
   1742 H5'       -3.0020   -10.0606  2827.0625 H        863 DG      0.0000
   1743 H5''      -3.4136    -8.4155  2826.5106 H        863 DG      0.0000
   1744 H4'       -1.0037    -9.0562  2827.3525 H        863 DG      0.0000
   1745 H3'       -2.4116    -9.4314  2829.7459 H        863 DG      0.0000
   1746 H2'       -2.7143    -7.1757  2830.2666 H        863 DG      0.0000
   1747 H2''      -1.0710    -7.4070  2830.9461 H        863 DG      0.0000
   1748 H1'       -0.0087    -6.5802  2829.0211 H        863 DG      0.0000
   1749 H8        -3.6142    -5.3276  2829.6485 H        863 DG      0.0000
   1750 H1         0.8044    -0.7380  2828.7119 H        863 DG      0.0000
   1751 H21        2.6836    -1.6174  2828.2114 H        863 DG      0.0000
   1752 H22        2.9351    -3.3435  2828.0790 H        863 DG      0.0000
   1753 P          0.1148   -10.0712  2830.9384 P.3      864 DA      0.0000
   1754 OP1       -0.3368   -11.4507  2831.2937 O.co2    864 DA      0.0000
   1755 OP2       -0.6938    -9.0623  2831.8341 O.co2    864 DA      0.0000
   1756 O5'        1.6295    -9.6734  2831.1875 O.3      864 DA      0.0000
   1757 C5'        2.5791    -9.3588  2830.1585 C.3      864 DA      0.0000
   1758 C4'        3.2806    -8.0964  2830.6328 C.3      864 DA      0.0000
   1759 O4'        2.4117    -6.9876  2830.5424 O.3      864 DA      0.0000
   1760 C3'        3.8232    -8.1202  2832.0618 C.3      864 DA      0.0000
   1761 O3'        5.1773    -7.6256  2832.1141 O.3      864 DA      0.0000
   1762 C2'        2.8265    -7.2160  2832.7973 C.3      864 DA      0.0000
   1763 C1'        2.6132    -6.1637  2831.7197 C.3      864 DA      0.0000
   1764 N9         1.4411    -5.3127  2831.9481 N.ar     864 DA      0.0000
   1765 C8         0.1363    -5.6548  2832.1638 C.ar     864 DA      0.0000
   1766 N7        -0.6641    -4.6252  2832.3288 N.ar     864 DA      0.0000
   1767 C5         0.1724    -3.5279  2832.1886 C.ar     864 DA      0.0000
   1768 C6        -0.0878    -2.1409  2832.2366 C.ar     864 DA      0.0000
   1769 N6        -1.2910    -1.6056  2832.4563 N.pl3    864 DA      0.0000
   1770 N1         1.0006    -1.3372  2832.0468 N.ar     864 DA      0.0000
   1771 C2         2.2299    -1.8592  2831.8290 C.ar     864 DA      0.0000
   1772 N3         2.5491    -3.1516  2831.7708 N.ar     864 DA      0.0000
   1773 C4         1.4660    -3.9276  2831.9576 C.ar     864 DA      0.0000
   1774 H5'        2.0703    -9.1798  2829.2113 H        864 DA      0.0000
   1775 H5''       3.2988   -10.1704  2830.0507 H        864 DA      0.0000
   1776 H4'        4.1209    -7.9134  2829.9630 H        864 DA      0.0000
   1777 H3'        3.7779    -9.1325  2832.4633 H        864 DA      0.0000
   1778 H2'        1.9035    -7.7413  2833.0428 H        864 DA      0.0000
   1779 H2''       3.2774    -6.7789  2833.6882 H        864 DA      0.0000
   1780 H1'        3.5083    -5.5523  2831.6052 H        864 DA      0.0000
   1781 H8        -0.2066    -6.6784  2832.1959 H        864 DA      0.0000
   1782 H2         3.0364    -1.1549  2831.6877 H        864 DA      0.0000
   1783 H61       -2.1690    -2.0954  2832.3589 H        864 DA      0.0000
   1784 H62       -1.4147    -0.6180  2832.2848 H        864 DA      0.0000
   1785 P          6.2501    -8.1200  2833.2555 P.3      865 DA      0.0000
   1786 OP1        7.4200    -8.7997  2832.5885 O.co2    865 DA      0.0000
   1787 OP2        5.3987    -8.9955  2834.0865 O.co2    865 DA      0.0000
   1788 O5'        6.8483    -6.7397  2833.7864 O.3      865 DA      0.0000
   1789 C5'        7.5629    -5.8204  2832.9621 C.3      865 DA      0.0000
   1790 C4'        7.3039    -4.4182  2833.4844 C.3      865 DA      0.0000
   1791 O4'        5.9341    -4.1320  2833.5125 O.3      865 DA      0.0000
   1792 C3'        7.8637    -4.0659  2834.8517 C.3      865 DA      0.0000
   1793 O3'        8.8407    -3.0282  2834.7739 O.3      865 DA      0.0000
   1794 C2'        6.6182    -3.7280  2835.6804 C.3      865 DA      0.0000
   1795 C1'        5.5999    -3.3231  2834.6866 C.3      865 DA      0.0000
   1796 N9         4.1671    -3.5429  2834.9547 N.ar     865 DA      0.0000
   1797 C8         3.4594    -4.7148  2835.0699 C.ar     865 DA      0.0000
   1798 N7         2.1691    -4.5483  2835.2391 N.ar     865 DA      0.0000
   1799 C5         2.0054    -3.1672  2835.2021 C.ar     865 DA      0.0000
   1800 C6         0.8479    -2.3466  2835.3226 C.ar     865 DA      0.0000
   1801 N6        -0.3902    -2.7844  2835.5142 N.pl3    865 DA      0.0000
   1802 N1         1.0664    -0.9952  2835.2244 N.ar     865 DA      0.0000
   1803 C2         2.3267    -0.5070  2835.0353 C.ar     865 DA      0.0000
   1804 N3         3.4459    -1.2139  2834.9275 N.ar     865 DA      0.0000
   1805 C4         3.2155    -2.5391  2835.0194 C.ar     865 DA      0.0000
   1806 H5'        7.2155    -5.9008  2831.9320 H        865 DA      0.0000
   1807 H5''       8.6300    -6.0383  2833.0080 H        865 DA      0.0000
   1808 H4'        7.7553    -3.7280  2832.7717 H        865 DA      0.0000
   1809 H3'        8.3326    -4.9542  2835.2749 H        865 DA      0.0000
   1810 H2'        6.2819    -4.6004  2836.2407 H        865 DA      0.0000
   1811 H2''       6.8304    -2.9027  2836.3600 H        865 DA      0.0000
   1812 H1'        5.7514    -2.2721  2834.4406 H        865 DA      0.0000
   1813 H8         3.9248    -5.6883  2835.0250 H        865 DA      0.0000
   1814 H2         2.4242     0.5664  2834.9662 H        865 DA      0.0000
   1815 H61       -0.5866    -3.7200  2835.8404 H        865 DA      0.0000
   1816 H62       -1.1625    -2.1609  2835.3274 H        865 DA      0.0000
   1817 P         10.1484    -2.8875  2835.7301 P.3      866 DT      0.0000
   1818 OP1       11.3835    -2.4836  2834.9328 O.co2    866 DT      0.0000
   1819 OP2       10.3116    -4.0692  2836.5507 O.co2    866 DT      0.0000
   1820 O5'        9.8134    -1.4980  2836.5438 O.3      866 DT      0.0000
   1821 C5'        9.2096    -0.5147  2835.5987 C.3      866 DT      0.0000
   1822 C4'        8.0933     0.1226  2836.3864 C.3      866 DT      0.0000
   1823 O4'        6.9812    -0.7226  2836.5784 O.3      866 DT      0.0000
   1824 C3'        8.5393     0.5297  2837.8030 C.3      866 DT      0.0000
   1825 O3'        8.8648     1.9073  2837.8047 O.3      866 DT      0.0000
   1826 C2'        7.3650     0.1465  2838.7002 C.3      866 DT      0.0000
   1827 C1'        6.2738    -0.0962  2837.7356 C.3      866 DT      0.0000
   1828 N1         5.1687    -0.9783  2838.0754 N.am     866 DT      0.0000
   1829 C2         3.9151    -0.3907  2838.2133 C.2      866 DT      0.0000
   1830 O2         3.7996     0.8249  2838.1253 O.2      866 DT      0.0000
   1831 N3         2.8490    -1.1997  2838.4673 N.am     866 DT      0.0000
   1832 C4         2.9637    -2.5552  2838.5875 C.2      866 DT      0.0000
   1833 O4         1.9226    -3.2407  2838.8426 O.2      866 DT      0.0000
   1834 C5         4.2613    -3.1404  2838.4159 C.2      866 DT      0.0000
   1835 C7         4.4388    -4.6309  2838.5034 C.3      866 DT      0.0000
   1836 C6         5.3090    -2.3381  2838.1601 C.2      866 DT      0.0000
   1837 H5'        9.9443     0.2319  2835.2970 H        866 DT      0.0000
   1838 H5''       8.8102    -1.0274  2834.7237 H        866 DT      0.0000
   1839 H4'        7.7621     1.0163  2835.8573 H        866 DT      0.0000
   1840 H3'        9.4171    -0.0506  2838.0873 H        866 DT      0.0000
   1841 H2'        7.5879    -0.7533  2839.2737 H        866 DT      0.0000
   1842 H2''       7.1092     0.9702  2839.3667 H        866 DT      0.0000
   1843 H1'        5.8685     0.8646  2837.4183 H        866 DT      0.0000
   1844 H3         1.9362    -0.7799  2838.5710 H        866 DT      0.0000
   1845 H6         6.2858    -2.7766  2838.0180 H        866 DT      0.0000
   1846 H71        3.4782    -5.0998  2838.7164 H        866 DT      0.0000
   1847 H72        4.8241    -5.0069  2837.5556 H        866 DT      0.0000
   1848 H73        5.1431    -4.8668  2839.3012 H        866 DT      0.0000
   1849 P          9.5578     2.7468  2838.9113 P.3      867 DT      0.0000
   1850 OP1       10.2116     4.0127  2838.2992 O.co2    867 DT      0.0000
   1851 OP2       10.5655     1.8553  2839.5412 O.co2    867 DT      0.0000
   1852 O5'        8.3493     3.3238  2839.7936 O.3      867 DT      0.0000
   1853 C5'        7.5725     4.3242  2839.0818 C.3      867 DT      0.0000
   1854 C4'        6.2542     4.4752  2839.7580 C.3      867 DT      0.0000
   1855 O4'        5.4584     3.2967  2839.7347 O.3      867 DT      0.0000
   1856 C3'        6.3411     4.9214  2841.2246 C.3      867 DT      0.0000
   1857 O3'        5.3770     5.9229  2841.4887 O.3      867 DT      0.0000
   1858 C2'        5.9555     3.6164  2841.9610 C.3      867 DT      0.0000
   1859 C1'        4.8092     3.2098  2841.0574 C.3      867 DT      0.0000
   1860 N1         4.3621     1.8617  2841.3551 N.am     867 DT      0.0000
   1861 C2         3.0001     1.6141  2841.4099 C.2      867 DT      0.0000
   1862 O2         2.2167     2.5459  2841.2215 O.2      867 DT      0.0000
   1863 N3         2.5851     0.3396  2841.6758 N.am     867 DT      0.0000
   1864 C4         3.4619    -0.6807  2841.8829 C.2      867 DT      0.0000
   1865 O4         3.0041    -1.8378  2842.1062 O.2      867 DT      0.0000
   1866 C5         4.8609    -0.4153  2841.8178 C.2      867 DT      0.0000
   1867 C7         5.8897    -1.4877  2842.0277 C.3      867 DT      0.0000
   1868 C6         5.2509     0.8421  2841.5566 C.2      867 DT      0.0000
   1869 H5'        8.1022     5.2768  2839.0943 H        867 DT      0.0000
   1870 H5''       7.4203     4.0039  2838.0511 H        867 DT      0.0000
   1871 H4'        5.7030     5.2462  2839.2195 H        867 DT      0.0000
   1872 H3'        7.3465     5.2505  2841.4871 H        867 DT      0.0000
   1873 H2'        6.7638     2.8852  2841.9597 H        867 DT      0.0000
   1874 H2''       5.6081     3.8209  2842.9737 H        867 DT      0.0000
   1875 H1'        3.9845     3.9185  2841.1330 H        867 DT      0.0000
   1876 H3         1.5944     0.1483  2841.7202 H        867 DT      0.0000
   1877 H6         6.3080     1.0571  2841.5036 H        867 DT      0.0000
   1878 H71        5.3910    -2.4364  2842.2266 H        867 DT      0.0000
   1879 H72        6.5043    -1.5814  2841.1324 H        867 DT      0.0000
   1880 H73        6.5212    -1.2244  2842.8761 H        867 DT      0.0000
   1881 P         -8.0499    -2.9888  2843.7724 P.3      867 DA      0.0000
   1882 OP1       -9.0268    -2.1009  2844.5538 O.co2    867 DA      0.0000
   1883 OP2       -8.6993    -3.5374  2842.5797 O.co2    867 DA      0.0000
   1884 O5'       -6.6936    -2.1034  2843.5976 O.3      867 DA      0.0000
   1885 C5'       -6.4737    -1.2114  2844.7541 C.3      867 DA      0.0000
   1886 C4'       -6.5345     0.2006  2844.2263 C.3      867 DA      0.0000
   1887 O4'       -5.2592     0.7468  2844.0040 O.3      867 DA      0.0000
   1888 C3'       -7.2608     0.3048  2842.8858 C.3      867 DA      0.0000
   1889 O3'       -8.0974     1.4343  2842.8106 O.3      867 DA      0.0000
   1890 C2'       -6.1200     0.2037  2841.8892 C.3      867 DA      0.0000
   1891 C1'       -4.8812     0.6521  2842.6131 C.3      867 DA      0.0000
   1892 N9        -3.7556    -0.2708  2842.3875 N.ar     867 DA      0.0000
   1893 C8        -3.7789    -1.6361  2842.2012 C.ar     867 DA      0.0000
   1894 N7        -2.5980    -2.1761  2842.0053 N.ar     867 DA      0.0000
   1895 C5        -1.7341    -1.0915  2842.0922 C.ar     867 DA      0.0000
   1896 C6        -0.3262    -1.0060  2841.9865 C.ar     867 DA      0.0000
   1897 N6         0.4600    -2.0465  2841.7740 N.pl3    867 DA      0.0000
   1898 N1         0.2088     0.2401  2842.1102 N.ar     867 DA      0.0000
   1899 C2        -0.5790     1.3330  2842.3347 C.ar     867 DA      0.0000
   1900 N3        -1.9053     1.3204  2842.4506 N.ar     867 DA      0.0000
   1901 C4        -2.4254     0.0766  2842.3145 C.ar     867 DA      0.0000
   1902 H5'       -7.2511    -1.3670  2845.5021 H        867 DA      0.0000
   1903 H5''      -5.4936    -1.4033  2845.1908 H        867 DA      0.0000
   1904 H4'       -7.0568     0.8217  2844.9539 H        867 DA      0.0000
   1905 H3'       -7.8842    -0.5821  2842.7727 H        867 DA      0.0000
   1906 H2'       -6.3102     0.8499  2841.0323 H        867 DA      0.0000
   1907 H2''      -6.0050    -0.8286  2841.5587 H        867 DA      0.0000
   1908 H1'       -4.6023     1.6430  2842.2549 H        867 DA      0.0000
   1909 H8        -4.6916    -2.2134  2842.2151 H        867 DA      0.0000
   1910 H2        -0.0841     2.2885  2842.4260 H        867 DA      0.0000
   1911 H61        1.4195    -2.0495  2842.0895 H        867 DA      0.0000
   1912 H62        0.0950    -2.8531  2841.2878 H        867 DA      0.0000
   1913 P         -8.3988     2.4357  2841.6260 P.3      866 DA      0.0000
   1914 OP1       -9.1878     3.6727  2842.1459 O.co2    866 DA      0.0000
   1915 OP2       -9.2727     1.6590  2840.6923 O.co2    866 DA      0.0000
   1916 O5'       -7.0164     2.9999  2841.1233 O.3      866 DA      0.0000
   1917 C5'       -6.5554     4.2886  2841.5791 C.3      866 DA      0.0000
   1918 C4'       -5.2430     4.5618  2840.8772 C.3      866 DA      0.0000
   1919 O4'       -4.4111     3.4433  2840.7565 O.3      866 DA      0.0000
   1920 C3'       -5.4121     5.1321  2839.4697 C.3      866 DA      0.0000
   1921 O3'       -4.9186     6.4846  2839.4382 O.3      866 DA      0.0000
   1922 C2'       -4.7415     4.0922  2838.5701 C.3      866 DA      0.0000
   1923 C1'       -3.7127     3.4744  2839.4679 C.3      866 DA      0.0000
   1924 N9        -3.3291     2.0988  2839.1683 N.ar     866 DA      0.0000
   1925 C8        -4.1290     0.9919  2838.9736 C.ar     866 DA      0.0000
   1926 N7        -3.4567    -0.1187  2838.7681 N.ar     866 DA      0.0000
   1927 C5        -2.1330     0.2690  2838.8427 C.ar     866 DA      0.0000
   1928 C6        -0.9283    -0.4572  2838.7092 C.ar     866 DA      0.0000
   1929 N6        -0.8740    -1.7632  2838.4660 N.pl3    866 DA      0.0000
   1930 N1         0.2183     0.2811  2838.8580 N.ar     866 DA      0.0000
   1931 C2         0.1944     1.6039  2839.1105 C.ar     866 DA      0.0000
   1932 N3        -0.9029     2.3541  2839.2494 N.ar     866 DA      0.0000
   1933 C4        -2.0309     1.6240  2839.1022 C.ar     866 DA      0.0000
   1934 H5'       -7.2836     5.0584  2841.3240 H        866 DA      0.0000
   1935 H5''      -6.4013     4.2670  2842.6579 H        866 DA      0.0000
   1936 H4'       -4.7064     5.3047  2841.4673 H        866 DA      0.0000
   1937 H3'       -6.4762     5.1514  2839.2347 H        866 DA      0.0000
   1938 H2'       -5.4612     3.3474  2838.2302 H        866 DA      0.0000
   1939 H2''      -4.2631     4.5764  2837.7188 H        866 DA      0.0000
   1940 H1'       -2.8298     4.1108  2839.5290 H        866 DA      0.0000
   1941 H8        -5.2081     1.0339  2838.9885 H        866 DA      0.0000
   1942 H2         1.1471     2.1029  2839.2096 H        866 DA      0.0000
   1943 H61       -0.0236    -2.2219  2838.7600 H        866 DA      0.0000
   1944 H62       -1.6301    -2.2616  2838.0187 H        866 DA      0.0000
   1945 P         -4.9753     7.3036  2838.0533 P.3      865 DT      0.0000
   1946 OP1       -4.7600     8.7846  2838.1114 O.co2    865 DT      0.0000
   1947 OP2       -6.3109     6.8698  2837.5406 O.co2    865 DT      0.0000
   1948 O5'       -3.6081     6.6601  2837.3501 O.3      865 DT      0.0000
   1949 C5'       -2.5617     6.5553  2838.3624 C.3      865 DT      0.0000
   1950 C4'       -1.2322     6.5115  2837.6795 C.3      865 DT      0.0000
   1951 O4'       -0.7396     5.2174  2837.4991 O.3      865 DT      0.0000
   1952 C3'       -1.2091     7.1894  2836.3182 C.3      865 DT      0.0000
   1953 O3'        0.0203     7.8749  2836.0510 O.3      865 DT      0.0000
   1954 C2'       -1.4854     5.9730  2835.4249 C.3      865 DT      0.0000
   1955 C1'       -0.6092     4.9175  2836.0649 C.3      865 DT      0.0000
   1956 N1        -1.1478     3.5636  2835.8350 N.am     865 DT      0.0000
   1957 C2        -0.2397     2.5267  2835.7133 C.2      865 DT      0.0000
   1958 O2         0.9740     2.7352  2835.7501 O.2      865 DT      0.0000
   1959 N3        -0.7301     1.2601  2835.5459 N.am     865 DT      0.0000
   1960 C4        -2.0654     1.0063  2835.4974 C.2      865 DT      0.0000
   1961 O4        -2.4296    -0.1931  2835.3119 O.2      865 DT      0.0000
   1962 C5        -2.9826     2.0842  2835.6458 C.2      865 DT      0.0000
   1963 C7        -4.4721     1.8403  2835.5937 C.3      865 DT      0.0000
   1964 C6        -2.4879     3.3143  2835.8188 C.2      865 DT      0.0000
   1965 H5'       -2.6049     7.4201  2839.0245 H        865 DT      0.0000
   1966 H5''      -2.7047     5.6435  2838.9425 H        865 DT      0.0000
   1967 H4'       -0.5239     7.0412  2838.3165 H        865 DT      0.0000
   1968 H3'       -2.0405     7.8906  2836.2462 H        865 DT      0.0000
   1969 H2'       -2.5371     5.6882  2835.4555 H        865 DT      0.0000
   1970 H2''      -1.1685     6.1674  2834.4003 H        865 DT      0.0000
   1971 H1'        0.4252     4.9991  2835.7310 H        865 DT      0.0000
   1972 H3        -0.0814     0.4911  2835.4558 H        865 DT      0.0000
   1973 H6        -3.1734     4.1385  2835.9502 H        865 DT      0.0000
   1974 H71       -4.8396     2.0466  2834.5885 H        865 DT      0.0000
   1975 H72       -4.9726     2.4970  2836.3053 H        865 DT      0.0000
   1976 H73       -4.6793     0.8014  2835.8502 H        865 DT      0.0000
   1977 P          0.1520     8.5362  2834.5610 P.3      864 DT      0.0000
   1978 OP1        0.1975    10.0582  2834.7090 O.co2    864 DT      0.0000
   1979 OP2       -1.1299     8.1316  2833.8912 O.co2    864 DT      0.0000
   1980 O5'        1.4398     7.9715  2833.9090 O.3      864 DT      0.0000
   1981 C5'        2.5879     7.5771  2834.6604 C.3      864 DT      0.0000
   1982 C4'        3.2856     6.4868  2833.9124 C.3      864 DT      0.0000
   1983 O4'        2.6815     5.2228  2833.8554 O.3      864 DT      0.0000
   1984 C3'        3.6802     6.7682  2832.4464 C.3      864 DT      0.0000
   1985 O3'        4.9121     6.0479  2832.3426 O.3      864 DT      0.0000
   1986 C2'        2.5427     6.0773  2831.6826 C.3      864 DT      0.0000
   1987 C1'        2.5609     4.7761  2832.4583 C.3      864 DT      0.0000
   1988 N1         1.3540     3.9512  2832.3522 N.am     864 DT      0.0000
   1989 C2         1.5709     2.5668  2832.3515 C.2      864 DT      0.0000
   1990 O2         2.7116     2.1014  2832.3946 O.2      864 DT      0.0000
   1991 N3         0.4668     1.7653  2832.2981 N.am     864 DT      0.0000
   1992 C4        -0.8021     2.2601  2832.2383 C.2      864 DT      0.0000
   1993 O4        -1.7612     1.4334  2832.1759 O.2      864 DT      0.0000
   1994 C5        -0.9934     3.6687  2832.2466 C.2      864 DT      0.0000
   1995 C7        -2.3978     4.2322  2832.1852 C.3      864 DT      0.0000
   1996 C6         0.0894     4.4489  2832.3131 C.2      864 DT      0.0000
   1997 H5'        3.2584     8.4277  2834.7826 H        864 DT      0.0000
   1998 H5''       2.2778     7.2107  2835.6390 H        864 DT      0.0000
   1999 H4'        4.2271     6.3326  2834.4397 H        864 DT      0.0000
   2000 H3'        3.7761     7.8296  2832.2176 H        864 DT      0.0000
   2001 H2'        2.7751     5.9363  2830.6270 H        864 DT      0.0000
   2002 H2''       1.5981     6.6050  2831.8142 H        864 DT      0.0000
   2003 H1'        3.4365     4.1900  2832.1793 H        864 DT      0.0000
   2004 H3         0.5956     0.7636  2832.3030 H        864 DT      0.0000
   2005 H6        -0.0458     5.5201  2832.3368 H        864 DT      0.0000
   2006 H71       -3.1163     3.4140  2832.1363 H        864 DT      0.0000
   2007 H72       -2.4994     4.8581  2831.2986 H        864 DT      0.0000
   2008 H73       -2.5885     4.8305  2833.0761 H        864 DT      0.0000
   2009 P          5.9547     6.1466  2831.1964 P.3      863 DC      0.0000
   2010 OP1        7.3462     6.3280  2831.8055 O.co2    863 DC      0.0000
   2011 OP2        5.5851     7.3680  2830.4145 O.co2    863 DC      0.0000
   2012 O5'        5.7454     4.7101  2830.4570 O.3      863 DC      0.0000
   2013 C5'        6.2882     3.5578  2831.1815 C.3      863 DC      0.0000
   2014 C4'        6.7687     2.5905  2830.1309 C.3      863 DC      0.0000
   2015 O4'        5.8369     1.5630  2829.8857 O.3      863 DC      0.0000
   2016 C3'        7.0768     3.2095  2828.7665 C.3      863 DC      0.0000
   2017 O3'        8.1493     2.5854  2828.0572 O.3      863 DC      0.0000
   2018 C2'        5.7098     3.0810  2828.0804 C.3      863 DC      0.0000
   2019 C1'        5.1909     1.7524  2828.6270 C.3      863 DC      0.0000
   2020 N1         3.7171     1.8518  2828.7448 N.am     863 DC      0.0000
   2021 C2         3.0009     0.6558  2828.7620 C.2      863 DC      0.0000
   2022 O2         3.5786    -0.4377  2828.6934 O.2      863 DC      0.0000
   2023 N3         1.6388     0.7429  2828.8653 N.2      863 DC      0.0000
   2024 C4         0.9946     1.9371  2828.9360 C.2      863 DC      0.0000
   2025 N4        -0.3359     1.9702  2829.0379 N.pl3    863 DC      0.0000
   2026 C5         1.7496     3.1428  2828.9109 C.2      863 DC      0.0000
   2027 C6         3.0876     3.0564  2828.8173 C.2      863 DC      0.0000
   2028 H5'        7.1174     3.8677  2831.8174 H        863 DC      0.0000
   2029 H5''       5.5075     3.0952  2831.7854 H        863 DC      0.0000
   2030 H4'        7.6840     2.1276  2830.4997 H        863 DC      0.0000
   2031 H3'        7.3081     4.2661  2828.9007 H        863 DC      0.0000
   2032 H2'        5.8149     3.0469  2826.9960 H        863 DC      0.0000
   2033 H2''       5.0538     3.8997  2828.3764 H        863 DC      0.0000
   2034 H1'        5.4557     0.9422  2827.9476 H        863 DC      0.0000
   2035 H5         1.2596     4.1038  2828.9657 H        863 DC      0.0000
   2036 H6         3.6757     3.9620  2828.7992 H        863 DC      0.0000
   2037 H41       -0.8624     1.1085  2829.0586 H        863 DC      0.0000
   2038 H42       -0.8162     2.8569  2829.0943 H        863 DC      0.0000
   2039 P          8.2284     2.3653  2826.4252 P.3      862 DA      0.0000
   2040 OP1        9.6834     2.2187  2826.0358 O.co2    862 DA      0.0000
   2041 OP2        7.5463     3.5589  2825.8552 O.co2    862 DA      0.0000
   2042 O5'        7.5233     0.9426  2826.2597 O.3      862 DA      0.0000
   2043 C5'        8.2613    -0.2535  2826.7251 C.3      862 DA      0.0000
   2044 C4'        7.6696    -1.3435  2825.8479 C.3      862 DA      0.0000
   2045 O4'        6.2673    -1.4722  2826.1152 O.3      862 DA      0.0000
   2046 C3'        7.7504    -1.0288  2824.3435 C.3      862 DA      0.0000
   2047 O3'        7.5475    -2.1902  2823.5544 O.3      862 DA      0.0000
   2048 C2'        6.4772    -0.1834  2824.1560 C.3      862 DA      0.0000
   2049 C1'        5.5488    -1.1739  2824.9106 C.3      862 DA      0.0000
   2050 N9         4.2879    -0.4537  2825.0561 N.ar     862 DA      0.0000
   2051 C8         4.1290     0.9122  2825.1289 C.ar     862 DA      0.0000
   2052 N7         2.8789     1.2845  2825.2436 N.ar     862 DA      0.0000
   2053 C5         2.1713     0.0691  2825.2372 C.ar     862 DA      0.0000
   2054 C6         0.7783    -0.1989  2825.3371 C.ar     862 DA      0.0000
   2055 N6        -0.1541     0.7503  2825.4600 N.pl3    862 DA      0.0000
   2056 N1         0.4557    -1.5220  2825.3020 N.ar     862 DA      0.0000
   2057 C2         1.4016    -2.4856  2825.1831 C.ar     862 DA      0.0000
   2058 N3         2.7225    -2.3057  2825.0916 N.ar     862 DA      0.0000
   2059 C4         3.0286    -0.9968  2825.1191 C.ar     862 DA      0.0000
   2060 H5'        9.3333    -0.1481  2826.5584 H        862 DA      0.0000
   2061 H5''       8.0525    -0.4497  2827.7768 H        862 DA      0.0000
   2062 H4'        8.1700    -2.2901  2826.0518 H        862 DA      0.0000
   2063 H3'        8.6583    -0.4893  2824.0738 H        862 DA      0.0000
   2064 H2'        6.5396     0.7924  2824.6376 H        862 DA      0.0000
   2065 H2''       6.2031    -0.0964  2823.1046 H        862 DA      0.0000
   2066 H1'        5.4025    -2.0796  2824.3222 H        862 DA      0.0000
   2067 H8         4.9544     1.6079  2825.0949 H        862 DA      0.0000
   2068 H2         1.0506    -3.5067  2825.1599 H        862 DA      0.0000
   2069 H61        0.1158     1.7232  2825.4847 H        862 DA      0.0000
   2070 H62       -1.1289     0.4947  2825.5281 H        862 DA      0.0000
   2071 P          8.5783    -2.5869  2822.4135 P.3      861 DC      0.0000
   2072 OP1        9.6514    -3.3279  2823.1938 O.co2    861 DC      0.0000
   2073 OP2        9.0957    -1.4213  2821.6879 O.co2    861 DC      0.0000
   2074 O5'        7.6152    -3.4949  2821.4376 O.3      861 DC      0.0000
   2075 C5'        6.8771    -4.5878  2822.1066 C.3      861 DC      0.0000
   2076 C4'        5.5217    -4.7132  2821.4626 C.3      861 DC      0.0000
   2077 O4'        4.5105    -3.9421  2822.0997 O.3      861 DC      0.0000
   2078 C3'        5.5193    -4.2862  2819.9848 C.3      861 DC      0.0000
   2079 O3'        4.6097    -5.0189  2819.1735 O.3      861 DC      0.0000
   2080 C2'        4.9918    -2.8234  2820.1504 C.3      861 DC      0.0000
   2081 C1'        3.7812    -3.2787  2821.0460 C.3      861 DC      0.0000
   2082 N1         2.9720    -2.1121  2821.2839 N.am     861 DC      0.0000
   2083 C2         1.6350    -2.2894  2821.6011 C.2      861 DC      0.0000
   2084 O2         0.9883    -3.3335  2821.7415 O.2      861 DC      0.0000
   2085 N3         0.8694    -1.1739  2821.7993 N.2      861 DC      0.0000
   2086 C4         1.3840     0.0880  2821.6833 C.2      861 DC      0.0000
   2087 N4         0.5964     1.1532  2821.8994 N.pl3    861 DC      0.0000
   2088 C5         2.7576     0.2540  2821.3537 C.2      861 DC      0.0000
   2089 C6         3.4858    -0.8521  2821.1620 C.2      861 DC      0.0000
   2090 H5'        7.4250    -5.5235  2821.9952 H        861 DC      0.0000
   2091 H5''       6.7597    -4.3560  2823.1652 H        861 DC      0.0000
   2092 H4'        5.2239    -5.7607  2821.5093 H        861 DC      0.0000
   2093 H3'        6.5255    -4.3005  2819.5658 H        861 DC      0.0000
   2094 H2'        5.6909    -2.1661  2820.6675 H        861 DC      0.0000
   2095 H2''       4.6603    -2.4002  2819.2022 H        861 DC      0.0000
   2096 H1'        3.1921    -4.0163  2820.5011 H        861 DC      0.0000
   2097 H5         3.1966     1.2364  2821.2615 H        861 DC      0.0000
   2098 H6         4.5276    -0.7438  2820.8987 H        861 DC      0.0000
   2099 H41       -0.3757     1.0219  2822.1399 H        861 DC      0.0000
   2100 H42        0.9759     2.0860  2821.8214 H        861 DC      0.0000
@<TRIPOS>BOND
     1      9     33 1
     2     41     65 1
     3     73     97 1
     4    105    127 1
     5    135    159 1
     6    197    222 1
     7    230    254 1
     8    262    287 1
     9    295    319 1
    10    327    351 1
    11      1      2 1
    12      1      3 1
    13      1      4 1
    14      4      5 1
    15      5      6 1
    16      6      7 1
    17      6      8 1
    18      7     11 1
    19      8      9 1
    20      8     10 1
    21     10     11 1
    22     11     12 1
    23     12     13 ar
    24     12     21 ar
    25     13     14 ar
    26     14     15 ar
    27     15     16 ar
    28     15     21 ar
    29     16     17 1
    30     16     18 ar
    31     18     19 ar
    32     19     20 ar
    33     20     21 ar
    34     33     34 1
    35     33     35 1
    36     33     36 1
    37     36     37 1
    38     37     38 1
    39     38     39 1
    40     38     40 1
    41     39     43 1
    42     40     41 1
    43     40     42 1
    44     42     43 1
    45     43     44 1
    46     44     45 am
    47     44     52 1
    48     45     46 2
    49     45     47 am
    50     47     48 am
    51     48     49 2
    52     48     50 1
    53     50     51 1
    54     50     52 2
    55     65     66 1
    56     65     67 1
    57     65     68 1
    58     68     69 1
    59     69     70 1
    60     70     71 1
    61     70     72 1
    62     71     75 1
    63     72     73 1
    64     72     74 1
    65     74     75 1
    66     75     76 1
    67     76     77 am
    68     76     84 1
    69     77     78 2
    70     77     79 am
    71     79     80 am
    72     80     81 2
    73     80     82 1
    74     82     83 1
    75     82     84 2
    76     97     98 1
    77     97     99 1
    78     97    100 1
    79    100    101 1
    80    101    102 1
    81    102    103 1
    82    102    104 1
    83    103    107 1
    84    104    105 1
    85    104    106 1
    86    106    107 1
    87    107    108 1
    88    108    109 am
    89    108    115 1
    90    109    110 2
    91    109    111 1
    92    111    112 2
    93    112    113 2
    94    112    114 2
    95    114    115 2
    96    127    128 1
    97    127    129 1
    98    127    130 1
    99    130    131 1
   100    131    132 1
   101    132    133 1
   102    132    134 1
   103    133    137 1
   104    134    135 1
   105    134    136 1
   106    136    137 1
   107    137    138 1
   108    138    139 ar
   109    138    147 ar
   110    139    140 ar
   111    140    141 ar
   112    141    142 ar
   113    141    147 ar
   114    142    143 1
   115    142    144 ar
   116    144    145 ar
   117    145    146 ar
   118    146    147 ar
   119    159    160 1
   120    159    161 1
   121    159    162 1
   122    162    163 1
   123    163    164 1
   124    164    165 1
   125    164    166 1
   126    165    169 1
   127    166    167 1
   128    166    168 1
   129    168    169 1
   130    169    170 1
   131    170    171 am
   132    170    177 1
   133    171    172 2
   134    171    173 1
   135    173    174 2
   136    174    175 2
   137    174    176 2
   138    176    177 2
   139    189    190 1
   140    189    191 1
   141    189    192 1
   142    192    193 1
   143    193    194 1
   144    194    195 1
   145    194    196 1
   146    195    199 1
   147    196    197 1
   148    196    198 1
   149    198    199 1
   150    199    200 1
   151    200    201 ar
   152    200    210 ar
   153    201    202 ar
   154    202    203 ar
   155    203    204 1
   156    203    210 ar
   157    204    205 2
   158    204    206 am
   159    206    207 1
   160    207    208 2
   161    207    209 2
   162    209    210 1
   163    222    223 1
   164    222    224 1
   165    222    225 1
   166    225    226 1
   167    226    227 1
   168    227    228 1
   169    227    229 1
   170    228    232 1
   171    229    230 1
   172    229    231 1
   173    231    232 1
   174    232    233 1
   175    233    234 am
   176    233    241 1
   177    234    235 2
   178    234    236 am
   179    236    237 am
   180    237    238 2
   181    237    239 1
   182    239    240 1
   183    239    241 2
   184    254    255 1
   185    254    256 1
   186    254    257 1
   187    257    258 1
   188    258    259 1
   189    259    260 1
   190    259    261 1
   191    260    264 1
   192    261    262 1
   193    261    263 1
   194    263    264 1
   195    264    265 1
   196    265    266 ar
   197    265    275 ar
   198    266    267 ar
   199    267    268 ar
   200    268    269 1
   201    268    275 ar
   202    269    270 2
   203    269    271 am
   204    271    272 1
   205    272    273 2
   206    272    274 2
   207    274    275 1
   208    287    288 1
   209    287    289 1
   210    287    290 1
   211    290    291 1
   212    291    292 1
   213    292    293 1
   214    292    294 1
   215    293    297 1
   216    294    295 1
   217    294    296 1
   218    296    297 1
   219    297    298 1
   220    298    299 ar
   221    298    307 ar
   222    299    300 ar
   223    300    301 ar
   224    301    302 ar
   225    301    307 ar
   226    302    303 1
   227    302    304 ar
   228    304    305 ar
   229    305    306 ar
   230    306    307 ar
   231    319    320 1
   232    319    321 1
   233    319    322 1
   234    322    323 1
   235    323    324 1
   236    324    325 1
   237    324    326 1
   238    325    329 1
   239    326    327 1
   240    326    328 1
   241    328    329 1
   242    329    330 1
   243    330    331 ar
   244    330    339 ar
   245    331    332 ar
   246    332    333 ar
   247    333    334 ar
   248    333    339 ar
   249    334    335 1
   250    334    336 ar
   251    336    337 ar
   252    337    338 ar
   253    338    339 ar
   254    351    352 1
   255    351    353 1
   256    351    354 1
   257    354    355 1
   258    355    356 1
   259    356    357 1
   260    356    358 1
   261    357    361 1
   262    358    359 1
   263    358    360 1
   264    360    361 1
   265    361    362 1
   266    362    363 am
   267    362    370 1
   268    363    364 2
   269    363    365 am
   270    365    366 am
   271    366    367 2
   272    366    368 1
   273    368    369 1
   274    368    370 2
   275     22      5 1
   276     23      5 1
   277     24      6 1
   278     25      8 1
   279     26     10 1
   280     27     10 1
   281     28     11 1
   282     29     13 1
   283     30     19 1
   284     53     37 1
   285     54     37 1
   286     55     38 1
   287     56     40 1
   288     57     42 1
   289     58     42 1
   290     59     43 1
   291     60     47 1
   292     61     52 1
   293     85     69 1
   294     86     69 1
   295     87     70 1
   296     88     72 1
   297     89     74 1
   298     90     74 1
   299     91     75 1
   300     92     79 1
   301     93     84 1
   302    116    101 1
   303    117    101 1
   304    118    102 1
   305    119    104 1
   306    120    106 1
   307    121    106 1
   308    122    107 1
   309    123    114 1
   310    124    115 1
   311    148    131 1
   312    149    131 1
   313    150    132 1
   314    151    134 1
   315    152    136 1
   316    153    136 1
   317    154    137 1
   318    155    139 1
   319    156    145 1
   320    178    163 1
   321    179    163 1
   322    180    164 1
   323    181    166 1
   324    182    168 1
   325    183    168 1
   326    184    169 1
   327    185    176 1
   328    186    177 1
   329    211    193 1
   330    212    193 1
   331    213    194 1
   332    214    196 1
   333    215    198 1
   334    216    198 1
   335    217    199 1
   336    218    201 1
   337    219    206 1
   338    242    226 1
   339    243    226 1
   340    244    227 1
   341    245    229 1
   342    246    231 1
   343    247    231 1
   344    248    232 1
   345    249    236 1
   346    250    241 1
   347    276    258 1
   348    277    258 1
   349    278    259 1
   350    279    261 1
   351    280    263 1
   352    281    263 1
   353    282    264 1
   354    283    266 1
   355    284    271 1
   356    308    291 1
   357    309    291 1
   358    310    292 1
   359    311    294 1
   360    312    296 1
   361    313    296 1
   362    314    297 1
   363    315    299 1
   364    316    305 1
   365    340    323 1
   366    341    323 1
   367    342    324 1
   368    343    326 1
   369    344    328 1
   370    345    328 1
   371    346    329 1
   372    347    331 1
   373    348    337 1
   374    371    355 1
   375    372    355 1
   376    373    356 1
   377    374    358 1
   378    375    360 1
   379    376    360 1
   380    377    361 1
   381    378    365 1
   382    379    370 1
   383    125    113 1
   384    126    113 1
   385    187    175 1
   386    188    175 1
   387    220    208 1
   388    221    208 1
   389    285    273 1
   390    286    273 1
   391     31     17 1
   392     32     17 1
   393    157    143 1
   394    158    143 1
   395    317    303 1
   396    318    303 1
   397    349    335 1
   398    350    335 1
   399     62     51 1
   400     63     51 1
   401     64     51 1
   402     94     83 1
   403     95     83 1
   404     96     83 1
   405    251    240 1
   406    252    240 1
   407    253    240 1
   408    380    369 1
   409    381    369 1
   410    382    369 1
   411    167    383 1
   412    189    997 1
   413    391    416 1
   414    424    448 1
   415    456    481 1
   416    489    513 1
   417    521    545 1
   418    553    577 1
   419    585    609 1
   420    617    639 1
   421    647    671 1
   422    709    734 1
   423    742    766 1
   424    774    799 1
   425    807    831 1
   426    839    863 1
   427    871    895 1
   428    903    927 1
   429    935    957 1
   430    965    989 1
   431    383    384 1
   432    383    385 1
   433    383    386 1
   434    386    387 1
   435    387    388 1
   436    388    389 1
   437    388    390 1
   438    389    393 1
   439    390    391 1
   440    390    392 1
   441    392    393 1
   442    393    394 1
   443    394    395 ar
   444    394    404 ar
   445    395    396 ar
   446    396    397 ar
   447    397    398 1
   448    397    404 ar
   449    398    399 2
   450    398    400 am
   451    400    401 1
   452    401    402 2
   453    401    403 2
   454    403    404 1
   455    416    417 1
   456    416    418 1
   457    416    419 1
   458    419    420 1
   459    420    421 1
   460    421    422 1
   461    421    423 1
   462    422    426 1
   463    423    424 1
   464    423    425 1
   465    425    426 1
   466    426    427 1
   467    427    428 am
   468    427    435 1
   469    428    429 2
   470    428    430 am
   471    430    431 am
   472    431    432 2
   473    431    433 1
   474    433    434 1
   475    433    435 2
   476    448    449 1
   477    448    450 1
   478    448    451 1
   479    451    452 1
   480    452    453 1
   481    453    454 1
   482    453    455 1
   483    454    458 1
   484    455    456 1
   485    455    457 1
   486    457    458 1
   487    458    459 1
   488    459    460 ar
   489    459    469 ar
   490    460    461 ar
   491    461    462 ar
   492    462    463 1
   493    462    469 ar
   494    463    464 2
   495    463    465 am
   496    465    466 1
   497    466    467 2
   498    466    468 2
   499    468    469 1
   500    481    482 1
   501    481    483 1
   502    481    484 1
   503    484    485 1
   504    485    486 1
   505    486    487 1
   506    486    488 1
   507    487    491 1
   508    488    489 1
   509    488    490 1
   510    490    491 1
   511    491    492 1
   512    492    493 ar
   513    492    501 ar
   514    493    494 ar
   515    494    495 ar
   516    495    496 ar
   517    495    501 ar
   518    496    497 1
   519    496    498 ar
   520    498    499 ar
   521    499    500 ar
   522    500    501 ar
   523    513    514 1
   524    513    515 1
   525    513    516 1
   526    516    517 1
   527    517    518 1
   528    518    519 1
   529    518    520 1
   530    519    523 1
   531    520    521 1
   532    520    522 1
   533    522    523 1
   534    523    524 1
   535    524    525 ar
   536    524    533 ar
   537    525    526 ar
   538    526    527 ar
   539    527    528 ar
   540    527    533 ar
   541    528    529 1
   542    528    530 ar
   543    530    531 ar
   544    531    532 ar
   545    532    533 ar
   546    545    546 1
   547    545    547 1
   548    545    548 1
   549    548    549 1
   550    549    550 1
   551    550    551 1
   552    550    552 1
   553    551    555 1
   554    552    553 1
   555    552    554 1
   556    554    555 1
   557    555    556 1
   558    556    557 am
   559    556    564 1
   560    557    558 2
   561    557    559 am
   562    559    560 am
   563    560    561 2
   564    560    562 1
   565    562    563 1
   566    562    564 2
   567    577    578 1
   568    577    579 1
   569    577    580 1
   570    580    581 1
   571    581    582 1
   572    582    583 1
   573    582    584 1
   574    583    587 1
   575    584    585 1
   576    584    586 1
   577    586    587 1
   578    587    588 1
   579    588    589 am
   580    588    596 1
   581    589    590 2
   582    589    591 am
   583    591    592 am
   584    592    593 2
   585    592    594 1
   586    594    595 1
   587    594    596 2
   588    609    610 1
   589    609    611 1
   590    609    612 1
   591    612    613 1
   592    613    614 1
   593    614    615 1
   594    614    616 1
   595    615    619 1
   596    616    617 1
   597    616    618 1
   598    618    619 1
   599    619    620 1
   600    620    621 am
   601    620    627 1
   602    621    622 2
   603    621    623 1
   604    623    624 2
   605    624    625 2
   606    624    626 2
   607    626    627 2
   608    639    640 1
   609    639    641 1
   610    639    642 1
   611    642    643 1
   612    643    644 1
   613    644    645 1
   614    644    646 1
   615    645    649 1
   616    646    647 1
   617    646    648 1
   618    648    649 1
   619    649    650 1
   620    650    651 ar
   621    650    659 ar
   622    651    652 ar
   623    652    653 ar
   624    653    654 ar
   625    653    659 ar
   626    654    655 1
   627    654    656 ar
   628    656    657 ar
   629    657    658 ar
   630    658    659 ar
   631    671    672 1
   632    671    673 1
   633    671    674 1
   634    674    675 1
   635    675    676 1
   636    676    677 1
   637    676    678 1
   638    677    681 1
   639    678    679 1
   640    678    680 1
   641    680    681 1
   642    681    682 1
   643    682    683 am
   644    682    689 1
   645    683    684 2
   646    683    685 1
   647    685    686 2
   648    686    687 2
   649    686    688 2
   650    688    689 2
   651    701    702 1
   652    701    703 1
   653    701    704 1
   654    704    705 1
   655    705    706 1
   656    706    707 1
   657    706    708 1
   658    707    711 1
   659    708    709 1
   660    708    710 1
   661    710    711 1
   662    711    712 1
   663    712    713 ar
   664    712    722 ar
   665    713    714 ar
   666    714    715 ar
   667    715    716 1
   668    715    722 ar
   669    716    717 2
   670    716    718 am
   671    718    719 1
   672    719    720 2
   673    719    721 2
   674    721    722 1
   675    734    735 1
   676    734    736 1
   677    734    737 1
   678    737    738 1
   679    738    739 1
   680    739    740 1
   681    739    741 1
   682    740    744 1
   683    741    742 1
   684    741    743 1
   685    743    744 1
   686    744    745 1
   687    745    746 am
   688    745    753 1
   689    746    747 2
   690    746    748 am
   691    748    749 am
   692    749    750 2
   693    749    751 1
   694    751    752 1
   695    751    753 2
   696    766    767 1
   697    766    768 1
   698    766    769 1
   699    769    770 1
   700    770    771 1
   701    771    772 1
   702    771    773 1
   703    772    776 1
   704    773    774 1
   705    773    775 1
   706    775    776 1
   707    776    777 1
   708    777    778 ar
   709    777    787 ar
   710    778    779 ar
   711    779    780 ar
   712    780    781 1
   713    780    787 ar
   714    781    782 2
   715    781    783 am
   716    783    784 1
   717    784    785 2
   718    784    786 2
   719    786    787 1
   720    799    800 1
   721    799    801 1
   722    799    802 1
   723    802    803 1
   724    803    804 1
   725    804    805 1
   726    804    806 1
   727    805    809 1
   728    806    807 1
   729    806    808 1
   730    808    809 1
   731    809    810 1
   732    810    811 ar
   733    810    819 ar
   734    811    812 ar
   735    812    813 ar
   736    813    814 ar
   737    813    819 ar
   738    814    815 1
   739    814    816 ar
   740    816    817 ar
   741    817    818 ar
   742    818    819 ar
   743    831    832 1
   744    831    833 1
   745    831    834 1
   746    834    835 1
   747    835    836 1
   748    836    837 1
   749    836    838 1
   750    837    841 1
   751    838    839 1
   752    838    840 1
   753    840    841 1
   754    841    842 1
   755    842    843 ar
   756    842    851 ar
   757    843    844 ar
   758    844    845 ar
   759    845    846 ar
   760    845    851 ar
   761    846    847 1
   762    846    848 ar
   763    848    849 ar
   764    849    850 ar
   765    850    851 ar
   766    863    864 1
   767    863    865 1
   768    863    866 1
   769    866    867 1
   770    867    868 1
   771    868    869 1
   772    868    870 1
   773    869    873 1
   774    870    871 1
   775    870    872 1
   776    872    873 1
   777    873    874 1
   778    874    875 am
   779    874    882 1
   780    875    876 2
   781    875    877 am
   782    877    878 am
   783    878    879 2
   784    878    880 1
   785    880    881 1
   786    880    882 2
   787    895    896 1
   788    895    897 1
   789    895    898 1
   790    898    899 1
   791    899    900 1
   792    900    901 1
   793    900    902 1
   794    901    905 1
   795    902    903 1
   796    902    904 1
   797    904    905 1
   798    905    906 1
   799    906    907 am
   800    906    914 1
   801    907    908 2
   802    907    909 am
   803    909    910 am
   804    910    911 2
   805    910    912 1
   806    912    913 1
   807    912    914 2
   808    927    928 1
   809    927    929 1
   810    927    930 1
   811    930    931 1
   812    931    932 1
   813    932    933 1
   814    932    934 1
   815    933    937 1
   816    934    935 1
   817    934    936 1
   818    936    937 1
   819    937    938 1
   820    938    939 am
   821    938    945 1
   822    939    940 2
   823    939    941 1
   824    941    942 2
   825    942    943 2
   826    942    944 2
   827    944    945 2
   828    957    958 1
   829    957    959 1
   830    957    960 1
   831    960    961 1
   832    961    962 1
   833    962    963 1
   834    962    964 1
   835    963    967 1
   836    964    965 1
   837    964    966 1
   838    966    967 1
   839    967    968 1
   840    968    969 ar
   841    968    977 ar
   842    969    970 ar
   843    970    971 ar
   844    971    972 ar
   845    971    977 ar
   846    972    973 1
   847    972    974 ar
   848    974    975 ar
   849    975    976 ar
   850    976    977 ar
   851    989    990 1
   852    989    991 1
   853    989    992 1
   854    992    993 1
   855    993    994 1
   856    994    995 1
   857    994    996 1
   858    995    999 1
   859    996    997 1
   860    996    998 1
   861    998    999 1
   862    999   1000 1
   863   1000   1001 am
   864   1000   1007 1
   865   1001   1002 2
   866   1001   1003 1
   867   1003   1004 2
   868   1004   1005 2
   869   1004   1006 2
   870   1006   1007 2
   871    405    387 1
   872    406    387 1
   873    407    388 1
   874    408    390 1
   875    409    392 1
   876    410    392 1
   877    411    393 1
   878    412    395 1
   879    413    400 1
   880    436    420 1
   881    437    420 1
   882    438    421 1
   883    439    423 1
   884    440    425 1
   885    441    425 1
   886    442    426 1
   887    443    430 1
   888    444    435 1
   889    470    452 1
   890    471    452 1
   891    472    453 1
   892    473    455 1
   893    474    457 1
   894    475    457 1
   895    476    458 1
   896    477    460 1
   897    478    465 1
   898    502    485 1
   899    503    485 1
   900    504    486 1
   901    505    488 1
   902    506    490 1
   903    507    490 1
   904    508    491 1
   905    509    493 1
   906    510    499 1
   907    534    517 1
   908    535    517 1
   909    536    518 1
   910    537    520 1
   911    538    522 1
   912    539    522 1
   913    540    523 1
   914    541    525 1
   915    542    531 1
   916    565    549 1
   917    566    549 1
   918    567    550 1
   919    568    552 1
   920    569    554 1
   921    570    554 1
   922    571    555 1
   923    572    559 1
   924    573    564 1
   925    597    581 1
   926    598    581 1
   927    599    582 1
   928    600    584 1
   929    601    586 1
   930    602    586 1
   931    603    587 1
   932    604    591 1
   933    605    596 1
   934    628    613 1
   935    629    613 1
   936    630    614 1
   937    631    616 1
   938    632    618 1
   939    633    618 1
   940    634    619 1
   941    635    626 1
   942    636    627 1
   943    660    643 1
   944    661    643 1
   945    662    644 1
   946    663    646 1
   947    664    648 1
   948    665    648 1
   949    666    649 1
   950    667    651 1
   951    668    657 1
   952    690    675 1
   953    691    675 1
   954    692    676 1
   955    693    678 1
   956    694    680 1
   957    695    680 1
   958    696    681 1
   959    697    688 1
   960    698    689 1
   961    723    705 1
   962    724    705 1
   963    725    706 1
   964    726    708 1
   965    727    710 1
   966    728    710 1
   967    729    711 1
   968    730    713 1
   969    731    718 1
   970    754    738 1
   971    755    738 1
   972    756    739 1
   973    757    741 1
   974    758    743 1
   975    759    743 1
   976    760    744 1
   977    761    748 1
   978    762    753 1
   979    788    770 1
   980    789    770 1
   981    790    771 1
   982    791    773 1
   983    792    775 1
   984    793    775 1
   985    794    776 1
   986    795    778 1
   987    796    783 1
   988    820    803 1
   989    821    803 1
   990    822    804 1
   991    823    806 1
   992    824    808 1
   993    825    808 1
   994    826    809 1
   995    827    811 1
   996    828    817 1
   997    852    835 1
   998    853    835 1
   999    854    836 1
  1000    855    838 1
  1001    856    840 1
  1002    857    840 1
  1003    858    841 1
  1004    859    843 1
  1005    860    849 1
  1006    883    867 1
  1007    884    867 1
  1008    885    868 1
  1009    886    870 1
  1010    887    872 1
  1011    888    872 1
  1012    889    873 1
  1013    890    877 1
  1014    891    882 1
  1015    915    899 1
  1016    916    899 1
  1017    917    900 1
  1018    918    902 1
  1019    919    904 1
  1020    920    904 1
  1021    921    905 1
  1022    922    909 1
  1023    923    914 1
  1024    946    931 1
  1025    947    931 1
  1026    948    932 1
  1027    949    934 1
  1028    950    936 1
  1029    951    936 1
  1030    952    937 1
  1031    953    944 1
  1032    954    945 1
  1033    978    961 1
  1034    979    961 1
  1035    980    962 1
  1036    981    964 1
  1037    982    966 1
  1038    983    966 1
  1039    984    967 1
  1040    985    969 1
  1041    986    975 1
  1042   1008    993 1
  1043   1009    993 1
  1044   1010    994 1
  1045   1011    996 1
  1046   1012    998 1
  1047   1013    998 1
  1048   1014    999 1
  1049   1015   1006 1
  1050   1016   1007 1
  1051    414    402 1
  1052    415    402 1
  1053    479    467 1
  1054    480    467 1
  1055    637    625 1
  1056    638    625 1
  1057    699    687 1
  1058    700    687 1
  1059    732    720 1
  1060    733    720 1
  1061    797    785 1
  1062    798    785 1
  1063    955    943 1
  1064    956    943 1
  1065   1017   1005 1
  1066   1018   1005 1
  1067    511    497 1
  1068    512    497 1
  1069    543    529 1
  1070    544    529 1
  1071    669    655 1
  1072    670    655 1
  1073    829    815 1
  1074    830    815 1
  1075    861    847 1
  1076    862    847 1
  1077    987    973 1
  1078    988    973 1
  1079    445    434 1
  1080    446    434 1
  1081    447    434 1
  1082    574    563 1
  1083    575    563 1
  1084    576    563 1
  1085    606    595 1
  1086    607    595 1
  1087    608    595 1
  1088    763    752 1
  1089    764    752 1
  1090    765    752 1
  1091    892    881 1
  1092    893    881 1
  1093    894    881 1
  1094    924    913 1
  1095    925    913 1
  1096    926    913 1
  1097    679   1019 1
  1098    701   1633 1
  1099   1027   1052 1
  1100   1060   1084 1
  1101   1092   1117 1
  1102   1125   1149 1
  1103   1157   1181 1
  1104   1189   1213 1
  1105   1221   1245 1
  1106   1253   1275 1
  1107   1283   1307 1
  1108   1345   1370 1
  1109   1378   1402 1
  1110   1410   1435 1
  1111   1443   1467 1
  1112   1475   1499 1
  1113   1507   1531 1
  1114   1539   1563 1
  1115   1571   1593 1
  1116   1601   1625 1
  1117   1019   1020 1
  1118   1019   1021 1
  1119   1019   1022 1
  1120   1022   1023 1
  1121   1023   1024 1
  1122   1024   1025 1
  1123   1024   1026 1
  1124   1025   1029 1
  1125   1026   1027 1
  1126   1026   1028 1
  1127   1028   1029 1
  1128   1029   1030 1
  1129   1030   1031 ar
  1130   1030   1040 ar
  1131   1031   1032 ar
  1132   1032   1033 ar
  1133   1033   1034 1
  1134   1033   1040 ar
  1135   1034   1035 2
  1136   1034   1036 am
  1137   1036   1037 1
  1138   1037   1038 2
  1139   1037   1039 2
  1140   1039   1040 1
  1141   1052   1053 1
  1142   1052   1054 1
  1143   1052   1055 1
  1144   1055   1056 1
  1145   1056   1057 1
  1146   1057   1058 1
  1147   1057   1059 1
  1148   1058   1062 1
  1149   1059   1060 1
  1150   1059   1061 1
  1151   1061   1062 1
  1152   1062   1063 1
  1153   1063   1064 am
  1154   1063   1071 1
  1155   1064   1065 2
  1156   1064   1066 am
  1157   1066   1067 am
  1158   1067   1068 2
  1159   1067   1069 1
  1160   1069   1070 1
  1161   1069   1071 2
  1162   1084   1085 1
  1163   1084   1086 1
  1164   1084   1087 1
  1165   1087   1088 1
  1166   1088   1089 1
  1167   1089   1090 1
  1168   1089   1091 1
  1169   1090   1094 1
  1170   1091   1092 1
  1171   1091   1093 1
  1172   1093   1094 1
  1173   1094   1095 1
  1174   1095   1096 ar
  1175   1095   1105 ar
  1176   1096   1097 ar
  1177   1097   1098 ar
  1178   1098   1099 1
  1179   1098   1105 ar
  1180   1099   1100 2
  1181   1099   1101 am
  1182   1101   1102 1
  1183   1102   1103 2
  1184   1102   1104 2
  1185   1104   1105 1
  1186   1117   1118 1
  1187   1117   1119 1
  1188   1117   1120 1
  1189   1120   1121 1
  1190   1121   1122 1
  1191   1122   1123 1
  1192   1122   1124 1
  1193   1123   1127 1
  1194   1124   1125 1
  1195   1124   1126 1
  1196   1126   1127 1
  1197   1127   1128 1
  1198   1128   1129 ar
  1199   1128   1137 ar
  1200   1129   1130 ar
  1201   1130   1131 ar
  1202   1131   1132 ar
  1203   1131   1137 ar
  1204   1132   1133 1
  1205   1132   1134 ar
  1206   1134   1135 ar
  1207   1135   1136 ar
  1208   1136   1137 ar
  1209   1149   1150 1
  1210   1149   1151 1
  1211   1149   1152 1
  1212   1152   1153 1
  1213   1153   1154 1
  1214   1154   1155 1
  1215   1154   1156 1
  1216   1155   1159 1
  1217   1156   1157 1
  1218   1156   1158 1
  1219   1158   1159 1
  1220   1159   1160 1
  1221   1160   1161 ar
  1222   1160   1169 ar
  1223   1161   1162 ar
  1224   1162   1163 ar
  1225   1163   1164 ar
  1226   1163   1169 ar
  1227   1164   1165 1
  1228   1164   1166 ar
  1229   1166   1167 ar
  1230   1167   1168 ar
  1231   1168   1169 ar
  1232   1181   1182 1
  1233   1181   1183 1
  1234   1181   1184 1
  1235   1184   1185 1
  1236   1185   1186 1
  1237   1186   1187 1
  1238   1186   1188 1
  1239   1187   1191 1
  1240   1188   1189 1
  1241   1188   1190 1
  1242   1190   1191 1
  1243   1191   1192 1
  1244   1192   1193 am
  1245   1192   1200 1
  1246   1193   1194 2
  1247   1193   1195 am
  1248   1195   1196 am
  1249   1196   1197 2
  1250   1196   1198 1
  1251   1198   1199 1
  1252   1198   1200 2
  1253   1213   1214 1
  1254   1213   1215 1
  1255   1213   1216 1
  1256   1216   1217 1
  1257   1217   1218 1
  1258   1218   1219 1
  1259   1218   1220 1
  1260   1219   1223 1
  1261   1220   1221 1
  1262   1220   1222 1
  1263   1222   1223 1
  1264   1223   1224 1
  1265   1224   1225 am
  1266   1224   1232 1
  1267   1225   1226 2
  1268   1225   1227 am
  1269   1227   1228 am
  1270   1228   1229 2
  1271   1228   1230 1
  1272   1230   1231 1
  1273   1230   1232 2
  1274   1245   1246 1
  1275   1245   1247 1
  1276   1245   1248 1
  1277   1248   1249 1
  1278   1249   1250 1
  1279   1250   1251 1
  1280   1250   1252 1
  1281   1251   1255 1
  1282   1252   1253 1
  1283   1252   1254 1
  1284   1254   1255 1
  1285   1255   1256 1
  1286   1256   1257 am
  1287   1256   1263 1
  1288   1257   1258 2
  1289   1257   1259 1
  1290   1259   1260 2
  1291   1260   1261 2
  1292   1260   1262 2
  1293   1262   1263 2
  1294   1275   1276 1
  1295   1275   1277 1
  1296   1275   1278 1
  1297   1278   1279 1
  1298   1279   1280 1
  1299   1280   1281 1
  1300   1280   1282 1
  1301   1281   1285 1
  1302   1282   1283 1
  1303   1282   1284 1
  1304   1284   1285 1
  1305   1285   1286 1
  1306   1286   1287 ar
  1307   1286   1295 ar
  1308   1287   1288 ar
  1309   1288   1289 ar
  1310   1289   1290 ar
  1311   1289   1295 ar
  1312   1290   1291 1
  1313   1290   1292 ar
  1314   1292   1293 ar
  1315   1293   1294 ar
  1316   1294   1295 ar
  1317   1307   1308 1
  1318   1307   1309 1
  1319   1307   1310 1
  1320   1310   1311 1
  1321   1311   1312 1
  1322   1312   1313 1
  1323   1312   1314 1
  1324   1313   1317 1
  1325   1314   1315 1
  1326   1314   1316 1
  1327   1316   1317 1
  1328   1317   1318 1
  1329   1318   1319 am
  1330   1318   1325 1
  1331   1319   1320 2
  1332   1319   1321 1
  1333   1321   1322 2
  1334   1322   1323 2
  1335   1322   1324 2
  1336   1324   1325 2
  1337   1337   1338 1
  1338   1337   1339 1
  1339   1337   1340 1
  1340   1340   1341 1
  1341   1341   1342 1
  1342   1342   1343 1
  1343   1342   1344 1
  1344   1343   1347 1
  1345   1344   1345 1
  1346   1344   1346 1
  1347   1346   1347 1
  1348   1347   1348 1
  1349   1348   1349 ar
  1350   1348   1358 ar
  1351   1349   1350 ar
  1352   1350   1351 ar
  1353   1351   1352 1
  1354   1351   1358 ar
  1355   1352   1353 2
  1356   1352   1354 am
  1357   1354   1355 1
  1358   1355   1356 2
  1359   1355   1357 2
  1360   1357   1358 1
  1361   1370   1371 1
  1362   1370   1372 1
  1363   1370   1373 1
  1364   1373   1374 1
  1365   1374   1375 1
  1366   1375   1376 1
  1367   1375   1377 1
  1368   1376   1380 1
  1369   1377   1378 1
  1370   1377   1379 1
  1371   1379   1380 1
  1372   1380   1381 1
  1373   1381   1382 am
  1374   1381   1389 1
  1375   1382   1383 2
  1376   1382   1384 am
  1377   1384   1385 am
  1378   1385   1386 2
  1379   1385   1387 1
  1380   1387   1388 1
  1381   1387   1389 2
  1382   1402   1403 1
  1383   1402   1404 1
  1384   1402   1405 1
  1385   1405   1406 1
  1386   1406   1407 1
  1387   1407   1408 1
  1388   1407   1409 1
  1389   1408   1412 1
  1390   1409   1410 1
  1391   1409   1411 1
  1392   1411   1412 1
  1393   1412   1413 1
  1394   1413   1414 ar
  1395   1413   1423 ar
  1396   1414   1415 ar
  1397   1415   1416 ar
  1398   1416   1417 1
  1399   1416   1423 ar
  1400   1417   1418 2
  1401   1417   1419 am
  1402   1419   1420 1
  1403   1420   1421 2
  1404   1420   1422 2
  1405   1422   1423 1
  1406   1435   1436 1
  1407   1435   1437 1
  1408   1435   1438 1
  1409   1438   1439 1
  1410   1439   1440 1
  1411   1440   1441 1
  1412   1440   1442 1
  1413   1441   1445 1
  1414   1442   1443 1
  1415   1442   1444 1
  1416   1444   1445 1
  1417   1445   1446 1
  1418   1446   1447 ar
  1419   1446   1455 ar
  1420   1447   1448 ar
  1421   1448   1449 ar
  1422   1449   1450 ar
  1423   1449   1455 ar
  1424   1450   1451 1
  1425   1450   1452 ar
  1426   1452   1453 ar
  1427   1453   1454 ar
  1428   1454   1455 ar
  1429   1467   1468 1
  1430   1467   1469 1
  1431   1467   1470 1
  1432   1470   1471 1
  1433   1471   1472 1
  1434   1472   1473 1
  1435   1472   1474 1
  1436   1473   1477 1
  1437   1474   1475 1
  1438   1474   1476 1
  1439   1476   1477 1
  1440   1477   1478 1
  1441   1478   1479 ar
  1442   1478   1487 ar
  1443   1479   1480 ar
  1444   1480   1481 ar
  1445   1481   1482 ar
  1446   1481   1487 ar
  1447   1482   1483 1
  1448   1482   1484 ar
  1449   1484   1485 ar
  1450   1485   1486 ar
  1451   1486   1487 ar
  1452   1499   1500 1
  1453   1499   1501 1
  1454   1499   1502 1
  1455   1502   1503 1
  1456   1503   1504 1
  1457   1504   1505 1
  1458   1504   1506 1
  1459   1505   1509 1
  1460   1506   1507 1
  1461   1506   1508 1
  1462   1508   1509 1
  1463   1509   1510 1
  1464   1510   1511 am
  1465   1510   1518 1
  1466   1511   1512 2
  1467   1511   1513 am
  1468   1513   1514 am
  1469   1514   1515 2
  1470   1514   1516 1
  1471   1516   1517 1
  1472   1516   1518 2
  1473   1531   1532 1
  1474   1531   1533 1
  1475   1531   1534 1
  1476   1534   1535 1
  1477   1535   1536 1
  1478   1536   1537 1
  1479   1536   1538 1
  1480   1537   1541 1
  1481   1538   1539 1
  1482   1538   1540 1
  1483   1540   1541 1
  1484   1541   1542 1
  1485   1542   1543 am
  1486   1542   1550 1
  1487   1543   1544 2
  1488   1543   1545 am
  1489   1545   1546 am
  1490   1546   1547 2
  1491   1546   1548 1
  1492   1548   1549 1
  1493   1548   1550 2
  1494   1563   1564 1
  1495   1563   1565 1
  1496   1563   1566 1
  1497   1566   1567 1
  1498   1567   1568 1
  1499   1568   1569 1
  1500   1568   1570 1
  1501   1569   1573 1
  1502   1570   1571 1
  1503   1570   1572 1
  1504   1572   1573 1
  1505   1573   1574 1
  1506   1574   1575 am
  1507   1574   1581 1
  1508   1575   1576 2
  1509   1575   1577 1
  1510   1577   1578 2
  1511   1578   1579 2
  1512   1578   1580 2
  1513   1580   1581 2
  1514   1593   1594 1
  1515   1593   1595 1
  1516   1593   1596 1
  1517   1596   1597 1
  1518   1597   1598 1
  1519   1598   1599 1
  1520   1598   1600 1
  1521   1599   1603 1
  1522   1600   1601 1
  1523   1600   1602 1
  1524   1602   1603 1
  1525   1603   1604 1
  1526   1604   1605 ar
  1527   1604   1613 ar
  1528   1605   1606 ar
  1529   1606   1607 ar
  1530   1607   1608 ar
  1531   1607   1613 ar
  1532   1608   1609 1
  1533   1608   1610 ar
  1534   1610   1611 ar
  1535   1611   1612 ar
  1536   1612   1613 ar
  1537   1625   1626 1
  1538   1625   1627 1
  1539   1625   1628 1
  1540   1628   1629 1
  1541   1629   1630 1
  1542   1630   1631 1
  1543   1630   1632 1
  1544   1631   1635 1
  1545   1632   1633 1
  1546   1632   1634 1
  1547   1634   1635 1
  1548   1635   1636 1
  1549   1636   1637 am
  1550   1636   1643 1
  1551   1637   1638 2
  1552   1637   1639 1
  1553   1639   1640 2
  1554   1640   1641 2
  1555   1640   1642 2
  1556   1642   1643 2
  1557   1041   1023 1
  1558   1042   1023 1
  1559   1043   1024 1
  1560   1044   1026 1
  1561   1045   1028 1
  1562   1046   1028 1
  1563   1047   1029 1
  1564   1048   1031 1
  1565   1049   1036 1
  1566   1072   1056 1
  1567   1073   1056 1
  1568   1074   1057 1
  1569   1075   1059 1
  1570   1076   1061 1
  1571   1077   1061 1
  1572   1078   1062 1
  1573   1079   1066 1
  1574   1080   1071 1
  1575   1106   1088 1
  1576   1107   1088 1
  1577   1108   1089 1
  1578   1109   1091 1
  1579   1110   1093 1
  1580   1111   1093 1
  1581   1112   1094 1
  1582   1113   1096 1
  1583   1114   1101 1
  1584   1138   1121 1
  1585   1139   1121 1
  1586   1140   1122 1
  1587   1141   1124 1
  1588   1142   1126 1
  1589   1143   1126 1
  1590   1144   1127 1
  1591   1145   1129 1
  1592   1146   1135 1
  1593   1170   1153 1
  1594   1171   1153 1
  1595   1172   1154 1
  1596   1173   1156 1
  1597   1174   1158 1
  1598   1175   1158 1
  1599   1176   1159 1
  1600   1177   1161 1
  1601   1178   1167 1
  1602   1201   1185 1
  1603   1202   1185 1
  1604   1203   1186 1
  1605   1204   1188 1
  1606   1205   1190 1
  1607   1206   1190 1
  1608   1207   1191 1
  1609   1208   1195 1
  1610   1209   1200 1
  1611   1233   1217 1
  1612   1234   1217 1
  1613   1235   1218 1
  1614   1236   1220 1
  1615   1237   1222 1
  1616   1238   1222 1
  1617   1239   1223 1
  1618   1240   1227 1
  1619   1241   1232 1
  1620   1264   1249 1
  1621   1265   1249 1
  1622   1266   1250 1
  1623   1267   1252 1
  1624   1268   1254 1
  1625   1269   1254 1
  1626   1270   1255 1
  1627   1271   1262 1
  1628   1272   1263 1
  1629   1296   1279 1
  1630   1297   1279 1
  1631   1298   1280 1
  1632   1299   1282 1
  1633   1300   1284 1
  1634   1301   1284 1
  1635   1302   1285 1
  1636   1303   1287 1
  1637   1304   1293 1
  1638   1326   1311 1
  1639   1327   1311 1
  1640   1328   1312 1
  1641   1329   1314 1
  1642   1330   1316 1
  1643   1331   1316 1
  1644   1332   1317 1
  1645   1333   1324 1
  1646   1334   1325 1
  1647   1359   1341 1
  1648   1360   1341 1
  1649   1361   1342 1
  1650   1362   1344 1
  1651   1363   1346 1
  1652   1364   1346 1
  1653   1365   1347 1
  1654   1366   1349 1
  1655   1367   1354 1
  1656   1390   1374 1
  1657   1391   1374 1
  1658   1392   1375 1
  1659   1393   1377 1
  1660   1394   1379 1
  1661   1395   1379 1
  1662   1396   1380 1
  1663   1397   1384 1
  1664   1398   1389 1
  1665   1424   1406 1
  1666   1425   1406 1
  1667   1426   1407 1
  1668   1427   1409 1
  1669   1428   1411 1
  1670   1429   1411 1
  1671   1430   1412 1
  1672   1431   1414 1
  1673   1432   1419 1
  1674   1456   1439 1
  1675   1457   1439 1
  1676   1458   1440 1
  1677   1459   1442 1
  1678   1460   1444 1
  1679   1461   1444 1
  1680   1462   1445 1
  1681   1463   1447 1
  1682   1464   1453 1
  1683   1488   1471 1
  1684   1489   1471 1
  1685   1490   1472 1
  1686   1491   1474 1
  1687   1492   1476 1
  1688   1493   1476 1
  1689   1494   1477 1
  1690   1495   1479 1
  1691   1496   1485 1
  1692   1519   1503 1
  1693   1520   1503 1
  1694   1521   1504 1
  1695   1522   1506 1
  1696   1523   1508 1
  1697   1524   1508 1
  1698   1525   1509 1
  1699   1526   1513 1
  1700   1527   1518 1
  1701   1551   1535 1
  1702   1552   1535 1
  1703   1553   1536 1
  1704   1554   1538 1
  1705   1555   1540 1
  1706   1556   1540 1
  1707   1557   1541 1
  1708   1558   1545 1
  1709   1559   1550 1
  1710   1582   1567 1
  1711   1583   1567 1
  1712   1584   1568 1
  1713   1585   1570 1
  1714   1586   1572 1
  1715   1587   1572 1
  1716   1588   1573 1
  1717   1589   1580 1
  1718   1590   1581 1
  1719   1614   1597 1
  1720   1615   1597 1
  1721   1616   1598 1
  1722   1617   1600 1
  1723   1618   1602 1
  1724   1619   1602 1
  1725   1620   1603 1
  1726   1621   1605 1
  1727   1622   1611 1
  1728   1644   1629 1
  1729   1645   1629 1
  1730   1646   1630 1
  1731   1647   1632 1
  1732   1648   1634 1
  1733   1649   1634 1
  1734   1650   1635 1
  1735   1651   1642 1
  1736   1652   1643 1
  1737   1050   1038 1
  1738   1051   1038 1
  1739   1115   1103 1
  1740   1116   1103 1
  1741   1273   1261 1
  1742   1274   1261 1
  1743   1335   1323 1
  1744   1336   1323 1
  1745   1368   1356 1
  1746   1369   1356 1
  1747   1433   1421 1
  1748   1434   1421 1
  1749   1591   1579 1
  1750   1592   1579 1
  1751   1653   1641 1
  1752   1654   1641 1
  1753   1147   1133 1
  1754   1148   1133 1
  1755   1179   1165 1
  1756   1180   1165 1
  1757   1305   1291 1
  1758   1306   1291 1
  1759   1465   1451 1
  1760   1466   1451 1
  1761   1497   1483 1
  1762   1498   1483 1
  1763   1623   1609 1
  1764   1624   1609 1
  1765   1081   1070 1
  1766   1082   1070 1
  1767   1083   1070 1
  1768   1210   1199 1
  1769   1211   1199 1
  1770   1212   1199 1
  1771   1242   1231 1
  1772   1243   1231 1
  1773   1244   1231 1
  1774   1399   1388 1
  1775   1400   1388 1
  1776   1401   1388 1
  1777   1528   1517 1
  1778   1529   1517 1
  1779   1530   1517 1
  1780   1560   1549 1
  1781   1561   1549 1
  1782   1562   1549 1
  1783   1315   1655 1
  1784   1337   2079 1
  1785   1663   1688 1
  1786   1696   1720 1
  1787   1728   1753 1
  1788   1761   1785 1
  1789   1793   1817 1
  1790   1825   1849 1
  1791   1889   1913 1
  1792   1921   1945 1
  1793   1953   1977 1
  1794   1985   2009 1
  1795   2017   2039 1
  1796   2047   2071 1
  1797   1655   1656 1
  1798   1655   1657 1
  1799   1655   1658 1
  1800   1658   1659 1
  1801   1659   1660 1
  1802   1660   1661 1
  1803   1660   1662 1
  1804   1661   1665 1
  1805   1662   1663 1
  1806   1662   1664 1
  1807   1664   1665 1
  1808   1665   1666 1
  1809   1666   1667 ar
  1810   1666   1676 ar
  1811   1667   1668 ar
  1812   1668   1669 ar
  1813   1669   1670 1
  1814   1669   1676 ar
  1815   1670   1671 2
  1816   1670   1672 am
  1817   1672   1673 1
  1818   1673   1674 2
  1819   1673   1675 2
  1820   1675   1676 1
  1821   1688   1689 1
  1822   1688   1690 1
  1823   1688   1691 1
  1824   1691   1692 1
  1825   1692   1693 1
  1826   1693   1694 1
  1827   1693   1695 1
  1828   1694   1698 1
  1829   1695   1696 1
  1830   1695   1697 1
  1831   1697   1698 1
  1832   1698   1699 1
  1833   1699   1700 am
  1834   1699   1707 1
  1835   1700   1701 2
  1836   1700   1702 am
  1837   1702   1703 am
  1838   1703   1704 2
  1839   1703   1705 1
  1840   1705   1706 1
  1841   1705   1707 2
  1842   1720   1721 1
  1843   1720   1722 1
  1844   1720   1723 1
  1845   1723   1724 1
  1846   1724   1725 1
  1847   1725   1726 1
  1848   1725   1727 1
  1849   1726   1730 1
  1850   1727   1728 1
  1851   1727   1729 1
  1852   1729   1730 1
  1853   1730   1731 1
  1854   1731   1732 ar
  1855   1731   1741 ar
  1856   1732   1733 ar
  1857   1733   1734 ar
  1858   1734   1735 1
  1859   1734   1741 ar
  1860   1735   1736 2
  1861   1735   1737 am
  1862   1737   1738 1
  1863   1738   1739 2
  1864   1738   1740 2
  1865   1740   1741 1
  1866   1753   1754 1
  1867   1753   1755 1
  1868   1753   1756 1
  1869   1756   1757 1
  1870   1757   1758 1
  1871   1758   1759 1
  1872   1758   1760 1
  1873   1759   1763 1
  1874   1760   1761 1
  1875   1760   1762 1
  1876   1762   1763 1
  1877   1763   1764 1
  1878   1764   1765 ar
  1879   1764   1773 ar
  1880   1765   1766 ar
  1881   1766   1767 ar
  1882   1767   1768 ar
  1883   1767   1773 ar
  1884   1768   1769 1
  1885   1768   1770 ar
  1886   1770   1771 ar
  1887   1771   1772 ar
  1888   1772   1773 ar
  1889   1785   1786 1
  1890   1785   1787 1
  1891   1785   1788 1
  1892   1788   1789 1
  1893   1789   1790 1
  1894   1790   1791 1
  1895   1790   1792 1
  1896   1791   1795 1
  1897   1792   1793 1
  1898   1792   1794 1
  1899   1794   1795 1
  1900   1795   1796 1
  1901   1796   1797 ar
  1902   1796   1805 ar
  1903   1797   1798 ar
  1904   1798   1799 ar
  1905   1799   1800 ar
  1906   1799   1805 ar
  1907   1800   1801 1
  1908   1800   1802 ar
  1909   1802   1803 ar
  1910   1803   1804 ar
  1911   1804   1805 ar
  1912   1817   1818 1
  1913   1817   1819 1
  1914   1817   1820 1
  1915   1820   1821 1
  1916   1821   1822 1
  1917   1822   1823 1
  1918   1822   1824 1
  1919   1823   1827 1
  1920   1824   1825 1
  1921   1824   1826 1
  1922   1826   1827 1
  1923   1827   1828 1
  1924   1828   1829 am
  1925   1828   1836 1
  1926   1829   1830 2
  1927   1829   1831 am
  1928   1831   1832 am
  1929   1832   1833 2
  1930   1832   1834 1
  1931   1834   1835 1
  1932   1834   1836 2
  1933   1849   1850 1
  1934   1849   1851 1
  1935   1849   1852 1
  1936   1852   1853 1
  1937   1853   1854 1
  1938   1854   1855 1
  1939   1854   1856 1
  1940   1855   1859 1
  1941   1856   1857 1
  1942   1856   1858 1
  1943   1858   1859 1
  1944   1859   1860 1
  1945   1860   1861 am
  1946   1860   1868 1
  1947   1861   1862 2
  1948   1861   1863 am
  1949   1863   1864 am
  1950   1864   1865 2
  1951   1864   1866 1
  1952   1866   1867 1
  1953   1866   1868 2
  1954   1881   1882 1
  1955   1881   1883 1
  1956   1881   1884 1
  1957   1884   1885 1
  1958   1885   1886 1
  1959   1886   1887 1
  1960   1886   1888 1
  1961   1887   1891 1
  1962   1888   1889 1
  1963   1888   1890 1
  1964   1890   1891 1
  1965   1891   1892 1
  1966   1892   1893 ar
  1967   1892   1901 ar
  1968   1893   1894 ar
  1969   1894   1895 ar
  1970   1895   1896 ar
  1971   1895   1901 ar
  1972   1896   1897 1
  1973   1896   1898 ar
  1974   1898   1899 ar
  1975   1899   1900 ar
  1976   1900   1901 ar
  1977   1913   1914 1
  1978   1913   1915 1
  1979   1913   1916 1
  1980   1916   1917 1
  1981   1917   1918 1
  1982   1918   1919 1
  1983   1918   1920 1
  1984   1919   1923 1
  1985   1920   1921 1
  1986   1920   1922 1
  1987   1922   1923 1
  1988   1923   1924 1
  1989   1924   1925 ar
  1990   1924   1933 ar
  1991   1925   1926 ar
  1992   1926   1927 ar
  1993   1927   1928 ar
  1994   1927   1933 ar
  1995   1928   1929 1
  1996   1928   1930 ar
  1997   1930   1931 ar
  1998   1931   1932 ar
  1999   1932   1933 ar
  2000   1945   1946 1
  2001   1945   1947 1
  2002   1945   1948 1
  2003   1948   1949 1
  2004   1949   1950 1
  2005   1950   1951 1
  2006   1950   1952 1
  2007   1951   1955 1
  2008   1952   1953 1
  2009   1952   1954 1
  2010   1954   1955 1
  2011   1955   1956 1
  2012   1956   1957 am
  2013   1956   1964 1
  2014   1957   1958 2
  2015   1957   1959 am
  2016   1959   1960 am
  2017   1960   1961 2
  2018   1960   1962 1
  2019   1962   1963 1
  2020   1962   1964 2
  2021   1977   1978 1
  2022   1977   1979 1
  2023   1977   1980 1
  2024   1980   1981 1
  2025   1981   1982 1
  2026   1982   1983 1
  2027   1982   1984 1
  2028   1983   1987 1
  2029   1984   1985 1
  2030   1984   1986 1
  2031   1986   1987 1
  2032   1987   1988 1
  2033   1988   1989 am
  2034   1988   1996 1
  2035   1989   1990 2
  2036   1989   1991 am
  2037   1991   1992 am
  2038   1992   1993 2
  2039   1992   1994 1
  2040   1994   1995 1
  2041   1994   1996 2
  2042   2009   2010 1
  2043   2009   2011 1
  2044   2009   2012 1
  2045   2012   2013 1
  2046   2013   2014 1
  2047   2014   2015 1
  2048   2014   2016 1
  2049   2015   2019 1
  2050   2016   2017 1
  2051   2016   2018 1
  2052   2018   2019 1
  2053   2019   2020 1
  2054   2020   2021 am
  2055   2020   2027 1
  2056   2021   2022 2
  2057   2021   2023 1
  2058   2023   2024 2
  2059   2024   2025 2
  2060   2024   2026 2
  2061   2026   2027 2
  2062   2039   2040 1
  2063   2039   2041 1
  2064   2039   2042 1
  2065   2042   2043 1
  2066   2043   2044 1
  2067   2044   2045 1
  2068   2044   2046 1
  2069   2045   2049 1
  2070   2046   2047 1
  2071   2046   2048 1
  2072   2048   2049 1
  2073   2049   2050 1
  2074   2050   2051 ar
  2075   2050   2059 ar
  2076   2051   2052 ar
  2077   2052   2053 ar
  2078   2053   2054 ar
  2079   2053   2059 ar
  2080   2054   2055 1
  2081   2054   2056 ar
  2082   2056   2057 ar
  2083   2057   2058 ar
  2084   2058   2059 ar
  2085   2071   2072 1
  2086   2071   2073 1
  2087   2071   2074 1
  2088   2074   2075 1
  2089   2075   2076 1
  2090   2076   2077 1
  2091   2076   2078 1
  2092   2077   2081 1
  2093   2078   2079 1
  2094   2078   2080 1
  2095   2080   2081 1
  2096   2081   2082 1
  2097   2082   2083 am
  2098   2082   2089 1
  2099   2083   2084 2
  2100   2083   2085 1
  2101   2085   2086 2
  2102   2086   2087 2
  2103   2086   2088 2
  2104   2088   2089 2
  2105   1677   1659 1
  2106   1678   1659 1
  2107   1679   1660 1
  2108   1680   1662 1
  2109   1681   1664 1
  2110   1682   1664 1
  2111   1683   1665 1
  2112   1684   1667 1
  2113   1685   1672 1
  2114   1708   1692 1
  2115   1709   1692 1
  2116   1710   1693 1
  2117   1711   1695 1
  2118   1712   1697 1
  2119   1713   1697 1
  2120   1714   1698 1
  2121   1715   1702 1
  2122   1716   1707 1
  2123   1742   1724 1
  2124   1743   1724 1
  2125   1744   1725 1
  2126   1745   1727 1
  2127   1746   1729 1
  2128   1747   1729 1
  2129   1748   1730 1
  2130   1749   1732 1
  2131   1750   1737 1
  2132   1774   1757 1
  2133   1775   1757 1
  2134   1776   1758 1
  2135   1777   1760 1
  2136   1778   1762 1
  2137   1779   1762 1
  2138   1780   1763 1
  2139   1781   1765 1
  2140   1782   1771 1
  2141   1806   1789 1
  2142   1807   1789 1
  2143   1808   1790 1
  2144   1809   1792 1
  2145   1810   1794 1
  2146   1811   1794 1
  2147   1812   1795 1
  2148   1813   1797 1
  2149   1814   1803 1
  2150   1837   1821 1
  2151   1838   1821 1
  2152   1839   1822 1
  2153   1840   1824 1
  2154   1841   1826 1
  2155   1842   1826 1
  2156   1843   1827 1
  2157   1844   1831 1
  2158   1845   1836 1
  2159   1869   1853 1
  2160   1870   1853 1
  2161   1871   1854 1
  2162   1872   1856 1
  2163   1873   1858 1
  2164   1874   1858 1
  2165   1875   1859 1
  2166   1876   1863 1
  2167   1877   1868 1
  2168   1902   1885 1
  2169   1903   1885 1
  2170   1904   1886 1
  2171   1905   1888 1
  2172   1906   1890 1
  2173   1907   1890 1
  2174   1908   1891 1
  2175   1909   1893 1
  2176   1910   1899 1
  2177   1934   1917 1
  2178   1935   1917 1
  2179   1936   1918 1
  2180   1937   1920 1
  2181   1938   1922 1
  2182   1939   1922 1
  2183   1940   1923 1
  2184   1941   1925 1
  2185   1942   1931 1
  2186   1965   1949 1
  2187   1966   1949 1
  2188   1967   1950 1
  2189   1968   1952 1
  2190   1969   1954 1
  2191   1970   1954 1
  2192   1971   1955 1
  2193   1972   1959 1
  2194   1973   1964 1
  2195   1997   1981 1
  2196   1998   1981 1
  2197   1999   1982 1
  2198   2000   1984 1
  2199   2001   1986 1
  2200   2002   1986 1
  2201   2003   1987 1
  2202   2004   1991 1
  2203   2005   1996 1
  2204   2028   2013 1
  2205   2029   2013 1
  2206   2030   2014 1
  2207   2031   2016 1
  2208   2032   2018 1
  2209   2033   2018 1
  2210   2034   2019 1
  2211   2035   2026 1
  2212   2036   2027 1
  2213   2060   2043 1
  2214   2061   2043 1
  2215   2062   2044 1
  2216   2063   2046 1
  2217   2064   2048 1
  2218   2065   2048 1
  2219   2066   2049 1
  2220   2067   2051 1
  2221   2068   2057 1
  2222   2090   2075 1
  2223   2091   2075 1
  2224   2092   2076 1
  2225   2093   2078 1
  2226   2094   2080 1
  2227   2095   2080 1
  2228   2096   2081 1
  2229   2097   2088 1
  2230   2098   2089 1
  2231   1686   1674 1
  2232   1687   1674 1
  2233   1751   1739 1
  2234   1752   1739 1
  2235   2037   2025 1
  2236   2038   2025 1
  2237   2099   2087 1
  2238   2100   2087 1
  2239   1783   1769 1
  2240   1784   1769 1
  2241   1815   1801 1
  2242   1816   1801 1
  2243   1911   1897 1
  2244   1912   1897 1
  2245   1943   1929 1
  2246   1944   1929 1
  2247   2069   2055 1
  2248   2070   2055 1
  2249   1717   1706 1
  2250   1718   1706 1
  2251   1719   1706 1
  2252   1846   1835 1
  2253   1847   1835 1
  2254   1848   1835 1
  2255   1878   1867 1
  2256   1879   1867 1
  2257   1880   1867 1
  2258   1974   1963 1
  2259   1975   1963 1
  2260   1976   1963 1
  2261   2006   1995 1
  2262   2007   1995 1
  2263   2008   1995 1
@<TRIPOS>MOLECULE
dna-seg-26-bp33
2098 2261 1 0 0
BIOPOLYMER
NO_CHARGES


@<TRIPOS>ATOM
      1 P          5.3811     7.3697  2842.0966 P.3      868 DC      0.0000
      2 OP1        5.1411     8.4195  2841.0287 O.co2    868 DC      0.0000
      3 OP2        6.6544     7.4802  2842.8316 O.co2    868 DC      0.0000
      4 O5'        3.9824     7.2235  2842.9226 O.3      868 DC      0.0000
      5 C5'        3.0250     6.7613  2841.9004 C.3      868 DC      0.0000
      6 C4'        1.7143     6.5299  2842.5969 C.3      868 DC      0.0000
      7 O4'        1.4684     5.1802  2842.8438 O.3      868 DC      0.0000
      8 C3'        1.5200     7.3164  2843.8883 C.3      868 DC      0.0000
      9 O3'        0.3450     8.1125  2843.8087 O.3      868 DC      0.0000
     10 C2'        1.5710     6.2033  2844.9371 C.3      868 DC      0.0000
     11 C1'        1.0564     5.0062  2844.2407 C.3      868 DC      0.0000
     12 N1         1.6793     3.7211  2844.5728 N.am     868 DC      0.0000
     13 C2         0.8032     2.6684  2844.8286 C.2      868 DC      0.0000
     14 O2        -0.4201     2.8369  2844.8331 O.2      868 DC      0.0000
     15 N3         1.3529     1.4404  2845.1024 N.2      868 DC      0.0000
     16 C4         2.7029     1.2461  2845.0925 C.2      868 DC      0.0000
     17 N4         3.1376     0.0217  2845.3694 N.pl3    868 DC      0.0000
     18 C5         3.5782     2.3190  2844.8145 C.2      868 DC      0.0000
     19 C6         3.0229     3.5194  2844.5497 C.2      868 DC      0.0000
     20 H5'        2.9085     7.5203  2841.1267 H        868 DC      0.0000
     21 H5''       3.3778     5.8306  2841.4562 H        868 DC      0.0000
     22 H4'        0.9364     6.8653  2841.9109 H        868 DC      0.0000
     23 H3'        2.3785     7.9725  2844.0316 H        868 DC      0.0000
     24 H2'        2.5945     6.0407  2845.2750 H        868 DC      0.0000
     25 H2''       0.9298     6.4523  2845.7826 H        868 DC      0.0000
     26 H1'       -0.0289     4.9453  2844.3217 H        868 DC      0.0000
     27 H5         4.6497     2.1837  2844.8139 H        868 DC      0.0000
     28 H6         3.6698     4.3506  2844.3107 H        868 DC      0.0000
     29 H41        2.4770    -0.7157  2845.5686 H        868 DC      0.0000
     30 H42        4.1289    -0.1716  2845.3807 H        868 DC      0.0000
     31 P         -0.0290     9.3723  2844.7607 P.3      869 DA      0.0000
     32 OP1       -0.9625    10.2660  2843.9670 O.co2    869 DA      0.0000
     33 OP2        1.2284    10.0661  2845.1062 O.co2    869 DA      0.0000
     34 O5'       -0.7710     8.6828  2846.0577 O.3      869 DA      0.0000
     35 C5'       -1.8830     7.7832  2845.7625 C.3      869 DA      0.0000
     36 C4'       -2.3938     7.1554  2847.0178 C.3      869 DA      0.0000
     37 O4'       -1.9351     5.8220  2847.2599 O.3      869 DA      0.0000
     38 C3'       -2.0101     7.8724  2848.3230 C.3      869 DA      0.0000
     39 O3'       -2.9093     7.4555  2849.3529 O.3      869 DA      0.0000
     40 C2'       -0.6087     7.2666  2848.5376 C.3      869 DA      0.0000
     41 C1'       -1.0217     5.8023  2848.3543 C.3      869 DA      0.0000
     42 N9         0.1706     4.9770  2848.2600 N.ar     869 DA      0.0000
     43 C8         1.4878     5.3252  2848.1442 C.ar     869 DA      0.0000
     44 N7         2.3335     4.3106  2848.1256 N.ar     869 DA      0.0000
     45 C5         1.5025     3.2044  2848.2331 C.ar     869 DA      0.0000
     46 C6         1.7728     1.8141  2848.2676 C.ar     869 DA      0.0000
     47 N6         2.9793     1.2832  2848.1824 N.pl3    869 DA      0.0000
     48 N1         0.6891     0.9940  2848.4002 N.ar     869 DA      0.0000
     49 C2        -0.5803     1.5017  2848.4804 C.ar     869 DA      0.0000
     50 N3        -0.9128     2.7901  2848.4505 N.ar     869 DA      0.0000
     51 C4         0.1751     3.5894  2848.3275 C.ar     869 DA      0.0000
     52 H5'       -2.6868     8.3488  2845.2913 H        869 DA      0.0000
     53 H5''      -1.5441     7.0026  2845.0812 H        869 DA      0.0000
     54 H4'       -3.4819     7.1286  2846.9589 H        869 DA      0.0000
     55 H3'       -1.9817     8.9561  2848.2093 H        869 DA      0.0000
     56 H2'        0.1094     7.5962  2847.7868 H        869 DA      0.0000
     57 H2''      -0.2439     7.4542  2849.5475 H        869 DA      0.0000
     58 H1'       -1.5717     5.4956  2849.2440 H        869 DA      0.0000
     59 H8         1.8125     6.3528  2848.0732 H        869 DA      0.0000
     60 H2        -1.3869     0.7900  2848.5768 H        869 DA      0.0000
     61 H61        3.3580     0.3643  2848.3624 H        869 DA      0.0000
     62 H62        3.6775     1.9417  2847.8676 H        869 DA      0.0000
     63 P         -4.3700     8.0935  2849.4934 P.3      870 DC      0.0000
     64 OP1       -4.8405     8.7640  2848.2483 O.co2    870 DC      0.0000
     65 OP2       -4.1897     9.0503  2850.6363 O.co2    870 DC      0.0000
     66 O5'       -5.2919     6.8347  2849.7766 O.3      870 DC      0.0000
     67 C5'       -5.7724     5.9881  2848.6888 C.3      870 DC      0.0000
     68 C4'       -5.9165     4.6346  2849.3938 C.3      870 DC      0.0000
     69 O4'       -4.6191     4.1830  2849.7058 O.3      870 DC      0.0000
     70 C3'       -6.6973     4.7027  2850.7037 C.3      870 DC      0.0000
     71 O3'       -7.7682     3.7342  2850.7716 O.3      870 DC      0.0000
     72 C2'       -5.6259     4.5006  2851.7859 C.3      870 DC      0.0000
     73 C1'       -4.6494     3.6263  2851.1097 C.3      870 DC      0.0000
     74 N1        -3.2322     3.6499  2851.4626 N.am     870 DC      0.0000
     75 C2        -2.5946     2.4110  2851.4357 C.2      870 DC      0.0000
     76 O2        -3.1936     1.3631  2851.2288 O.2      870 DC      0.0000
     77 N3        -1.2584     2.3903  2851.6888 N.2      870 DC      0.0000
     78 C4        -0.5444     3.5180  2851.9222 C.2      870 DC      0.0000
     79 N4         0.7587     3.3695  2852.1531 N.pl3    870 DC      0.0000
     80 C5        -1.2040     4.7778  2851.9287 C.2      870 DC      0.0000
     81 C6        -2.5226     4.7904  2851.6793 C.2      870 DC      0.0000
     82 H5'       -6.7296     6.3400  2848.3040 H        870 DC      0.0000
     83 H5''      -5.0333     5.9300  2847.8898 H        870 DC      0.0000
     84 H4'       -6.3967     3.9239  2848.7211 H        870 DC      0.0000
     85 H3'       -7.1198     5.7020  2850.8096 H        870 DC      0.0000
     86 H2'       -5.1724     5.4493  2852.0729 H        870 DC      0.0000
     87 H2''      -6.0502     3.9999  2852.6562 H        870 DC      0.0000
     88 H1'       -5.0140     2.5991  2851.0965 H        870 DC      0.0000
     89 H5        -0.6634     5.6914  2852.1272 H        870 DC      0.0000
     90 H6        -3.0384     5.7388  2851.6495 H        870 DC      0.0000
     91 H41        1.1717     2.4479  2852.1420 H        870 DC      0.0000
     92 H42        1.3339     4.1786  2852.3392 H        870 DC      0.0000
     93 P          6.9648    -4.8516  2853.7311 P.3      870 DG      0.0000
     94 OP1        8.2203    -5.6446  2853.9099 O.co2    870 DG      0.0000
     95 OP2        7.0800    -3.7889  2852.6463 O.co2    870 DG      0.0000
     96 O5'        5.6955    -5.8787  2853.5239 O.3      870 DG      0.0000
     97 C5'        4.7385    -6.0617  2854.6197 C.3      870 DG      0.0000
     98 C4'        3.3550    -6.1843  2853.9854 C.3      870 DG      0.0000
     99 O4'        2.7094    -4.9440  2853.8896 O.3      870 DG      0.0000
    100 C3'        3.3551    -6.7777  2852.5790 C.3      870 DG      0.0000
    101 O3'        2.2580    -7.6815  2852.3120 O.3      870 DG      0.0000
    102 C2'        3.2921    -5.5321  2851.6768 C.3      870 DG      0.0000
    103 C1'        2.3884    -4.6299  2852.5006 C.3      870 DG      0.0000
    104 N9         2.6656    -3.2094  2852.2273 N.ar     870 DG      0.0000
    105 C8         3.8888    -2.6019  2852.0706 C.ar     870 DG      0.0000
    106 N7         3.8188    -1.3157  2851.8522 N.ar     870 DG      0.0000
    107 C5         2.4545    -1.0512  2851.8770 C.ar     870 DG      0.0000
    108 C6         1.7315     0.1614  2851.7205 C.2      870 DG      0.0000
    109 O6         2.2093     1.2878  2851.5237 O.2      870 DG      0.0000
    110 N1         0.3682     0.0217  2851.8074 N.am     870 DG      0.0000
    111 C2        -0.2326    -1.1732  2852.0281 C.2      870 DG      0.0000
    112 N2        -1.5611    -1.1541  2852.0915 N.pl3    870 DG      0.0000
    113 N3         0.4003    -2.3422  2852.1858 N.2      870 DG      0.0000
    114 C4         1.7378    -2.2045  2852.1025 C.ar     870 DG      0.0000
    115 H5'        4.9765    -6.9674  2855.1774 H        870 DG      0.0000
    116 H5''       4.7666    -5.1985  2855.2846 H        870 DG      0.0000
    117 H4'        2.7497    -6.8295  2854.6221 H        870 DG      0.0000
    118 H3'        4.2981    -7.2972  2852.4085 H        870 DG      0.0000
    119 H2'        4.2780    -5.0898  2851.5341 H        870 DG      0.0000
    120 H2''       2.8318    -5.7707  2850.7180 H        870 DG      0.0000
    121 H1'        1.3419    -4.8558  2852.2953 H        870 DG      0.0000
    122 H8         4.8239    -3.1397  2852.1233 H        870 DG      0.0000
    123 H1        -0.2104     0.8428  2851.7026 H        870 DG      0.0000
    124 H21       -2.0597    -0.2833  2851.9764 H        870 DG      0.0000
    125 H22       -2.0713    -2.0104  2852.2546 H        870 DG      0.0000
    126 P          1.7648    -7.7426  2850.7886 P.3      869 DT      0.0000
    127 OP1        1.1650    -9.0664  2850.3977 O.co2    869 DT      0.0000
    128 OP2        3.0513    -7.5077  2850.0880 O.co2    869 DT      0.0000
    129 O5'        0.6680    -6.5819  2850.6577 O.3      869 DT      0.0000
    130 C5'       -0.7217    -6.9548  2850.9253 C.3      869 DT      0.0000
    131 C4'       -1.6257    -6.0064  2850.1682 C.3      869 DT      0.0000
    132 O4'       -1.1336    -4.6785  2850.1410 O.3      869 DT      0.0000
    133 C3'       -1.8226    -6.4040  2848.7135 C.3      869 DT      0.0000
    134 O3'       -3.1606    -6.1801  2848.2184 O.3      869 DT      0.0000
    135 C2'       -0.8041    -5.5506  2847.9907 C.3      869 DT      0.0000
    136 C1'       -0.9691    -4.2557  2848.7688 C.3      869 DT      0.0000
    137 N1         0.2887    -3.5074  2848.6175 N.am     869 DT      0.0000
    138 C2         0.1971    -2.1234  2848.7243 C.2      869 DT      0.0000
    139 O2        -0.8884    -1.5851  2848.9140 O.2      869 DT      0.0000
    140 N3         1.3568    -1.4100  2848.6041 N.am     869 DT      0.0000
    141 C4         2.5573    -2.0169  2848.3865 C.2      869 DT      0.0000
    142 O4         3.5848    -1.2676  2848.2890 O.2      869 DT      0.0000
    143 C5         2.6195    -3.4357  2848.2801 C.2      869 DT      0.0000
    144 C7         3.9387    -4.1160  2848.0512 C.3      869 DT      0.0000
    145 C6         1.4837    -4.1275  2848.4019 C.2      869 DT      0.0000
    146 H5'       -0.8990    -7.9772  2850.5916 H        869 DT      0.0000
    147 H5''      -0.9225    -6.8781  2851.9939 H        869 DT      0.0000
    148 H4'       -2.6003    -6.0002  2850.6562 H        869 DT      0.0000
    149 H3'       -1.5641    -7.4556  2848.5895 H        869 DT      0.0000
    150 H2'        0.2040    -5.9548  2848.0822 H        869 DT      0.0000
    151 H2''      -1.0783    -5.4161  2846.9443 H        869 DT      0.0000
    152 H1'       -1.8259    -3.6803  2848.4181 H        869 DT      0.0000
    153 H3         1.3230    -0.4033  2848.6788 H        869 DT      0.0000
    154 H6         1.5124    -5.2045  2848.3278 H        869 DT      0.0000
    155 H71        4.7274    -3.3668  2847.9825 H        869 DT      0.0000
    156 H72        4.1490    -4.7894  2848.8821 H        869 DT      0.0000
    157 H73        3.8973    -4.6862  2847.1230 H        869 DT      0.0000
    158 P         -3.6320    -7.5681  2847.4400 P.3      868 DG      0.0000
    159 OP1       -4.4042    -8.5045  2848.3113 O.co2    868 DG      0.0000
    160 OP2       -2.2909    -8.0579  2847.0345 O.co2    868 DG      0.0000
    161 O5'       -4.6439    -6.9660  2846.3592 O.3      868 DG      0.0000
    162 C5'       -5.9806    -6.5960  2846.7827 C.3      868 DG      0.0000
    163 C4'       -6.1443    -5.1490  2846.3350 C.3      868 DG      0.0000
    164 O4'       -4.9572    -4.4308  2846.6057 O.3      868 DG      0.0000
    165 C3'       -6.4528    -4.9804  2844.8472 C.3      868 DG      0.0000
    166 O3'       -7.6467    -4.2474  2844.6387 O.3      868 DG      0.0000
    167 C2'       -5.1939    -4.3576  2844.2705 C.3      868 DG      0.0000
    168 C1'       -4.6093    -3.6277  2845.4567 C.3      868 DG      0.0000
    169 N9        -3.1539    -3.5090  2845.3331 N.ar     868 DG      0.0000
    170 C8        -2.2322    -4.5048  2845.1742 C.ar     868 DG      0.0000
    171 N7        -0.9971    -4.0730  2845.0962 N.ar     868 DG      0.0000
    172 C5        -1.1121    -2.6928  2845.2337 C.ar     868 DG      0.0000
    173 C6        -0.1403    -1.6577  2845.2432 C.2      868 DG      0.0000
    174 O6         1.0761    -1.7828  2845.1441 O.2      868 DG      0.0000
    175 N1        -0.6513    -0.3997  2845.3921 N.am     868 DG      0.0000
    176 C2        -1.9994    -0.1702  2845.5250 C.2      868 DG      0.0000
    177 N2        -2.3623     1.1056  2845.6607 N.pl3    868 DG      0.0000
    178 N3        -2.9639    -1.0959  2845.5293 N.2      868 DG      0.0000
    179 C4        -2.4424    -2.3373  2845.3786 C.ar     868 DG      0.0000
    180 H5'       -6.7249    -7.2323  2846.3040 H        868 DG      0.0000
    181 H5''      -6.0656    -6.6669  2847.8670 H        868 DG      0.0000
    182 H4'       -6.9560    -4.7009  2846.9080 H        868 DG      0.0000
    183 H3'       -6.5774    -5.9704  2844.4087 H        868 DG      0.0000
    184 H2'       -4.5096    -5.1228  2843.9042 H        868 DG      0.0000
    185 H2''      -5.4442    -3.6557  2843.4750 H        868 DG      0.0000
    186 H1'       -5.0580    -2.6382  2845.5437 H        868 DG      0.0000
    187 H8        -2.4967    -5.5504  2845.1181 H        868 DG      0.0000
    188 H1        -0.0179     0.3869  2845.4050 H        868 DG      0.0000
    189 H21       -1.6613     1.8328  2845.6616 H        868 DG      0.0000
    190 H22       -3.3382     1.3449  2845.7625 H        868 DG      0.0000
    191 P         -9.7168     2.4424  2855.7727 P.3      871 DG      0.0000
    192 OP1      -10.8107     3.4449  2855.7711 O.co2    871 DG      0.0000
    193 OP2       -8.6992     2.8986  2856.8283 O.co2    871 DG      0.0000
    194 O5'      -10.1385     0.9186  2855.9510 O.3      871 DG      0.0000
    195 C5'      -10.2492    -0.1163  2854.9510 C.3      871 DG      0.0000
    196 C4'       -9.5019    -1.3355  2855.4499 C.3      871 DG      0.0000
    197 O4'       -8.1544    -1.3403  2855.0307 O.3      871 DG      0.0000
    198 C3'       -9.4917    -1.5992  2856.9420 C.3      871 DG      0.0000
    199 O3'       -9.9646    -2.9373  2857.2540 O.3      871 DG      0.0000
    200 C2'       -8.0550    -1.3566  2857.3639 C.3      871 DG      0.0000
    201 C1'       -7.2651    -1.6364  2856.1083 C.3      871 DG      0.0000
    202 N9        -6.0501    -0.8021  2856.0792 N.ar     871 DG      0.0000
    203 C8        -5.9127     0.5467  2856.3081 C.ar     871 DG      0.0000
    204 N7        -4.6765     0.9829  2856.2184 N.ar     871 DG      0.0000
    205 C5        -3.9447    -0.1585  2855.9014 C.ar     871 DG      0.0000
    206 C6        -2.5607    -0.3598  2855.6755 C.2      871 DG      0.0000
    207 O6        -1.6555     0.4748  2855.6967 O.2      871 DG      0.0000
    208 N1        -2.1979    -1.6485  2855.3940 N.am     871 DG      0.0000
    209 C2        -3.0470    -2.6238  2855.3333 C.2      871 DG      0.0000
    210 N2        -2.4535    -3.7141  2855.0365 N.pl3    871 DG      0.0000
    211 N3        -4.4265    -2.5265  2855.5421 N.2      871 DG      0.0000
    212 C4        -4.7744    -1.2607  2855.8146 C.ar     871 DG      0.0000
    213 H5'      -11.2983    -0.3658  2854.7923 H        871 DG      0.0000
    214 H5''      -9.8079     0.2278  2854.0157 H        871 DG      0.0000
    215 H4'       -9.9745    -2.2008  2854.9851 H        871 DG      0.0000
    216 H3'      -10.1349    -0.8708  2857.4360 H        871 DG      0.0000
    217 H2'       -7.9140    -0.3265  2857.6909 H        871 DG      0.0000
    218 H2''      -7.7689    -2.0493  2858.1554 H        871 DG      0.0000
    219 H1'       -6.9877    -2.6900  2856.0763 H        871 DG      0.0000
    220 H8        -6.7475     1.1910  2856.5412 H        871 DG      0.0000
    221 H1        -1.2223    -1.8482  2855.2256 H        871 DG      0.0000
    222 H21       -1.4539    -3.7218  2854.8922 H        871 DG      0.0000
    223 H22       -2.9834    -4.5692  2854.9461 H        871 DG      0.0000
    224 P         -9.7990    -3.5887  2858.6826 P.3      872 DT      0.0000
    225 OP1      -10.9722    -4.3838  2859.1942 O.co2    872 DT      0.0000
    226 OP2       -9.7320    -2.3551  2859.6012 O.co2    872 DT      0.0000
    227 O5'       -8.4319    -4.3188  2858.7112 O.3      872 DT      0.0000
    228 C5'       -8.2974    -5.7595  2858.5672 C.3      872 DT      0.0000
    229 C4'       -6.8052    -6.0112  2858.6247 C.3      872 DT      0.0000
    230 O4'       -6.0573    -4.8471  2858.3495 O.3      872 DT      0.0000
    231 C3'       -6.2601    -6.5142  2859.9374 C.3      872 DT      0.0000
    232 O3'       -5.7536    -7.8438  2859.7492 O.3      872 DT      0.0000
    233 C2'       -5.1494    -5.5401  2860.3296 C.3      872 DT      0.0000
    234 C1'       -4.7518    -5.0092  2858.9769 C.3      872 DT      0.0000
    235 N1        -4.1458    -3.6811  2859.0735 N.am     872 DT      0.0000
    236 C2        -2.7948    -3.5889  2858.8756 C.2      872 DT      0.0000
    237 O2        -2.0942    -4.5700  2858.6374 O.2      872 DT      0.0000
    238 N3        -2.2365    -2.3416  2858.9567 N.am     872 DT      0.0000
    239 C4        -2.9596    -1.2279  2859.2126 C.2      872 DT      0.0000
    240 O4        -2.3073    -0.1522  2859.2578 O.2      872 DT      0.0000
    241 C5        -4.3728    -1.3436  2859.4123 C.2      872 DT      0.0000
    242 C7        -5.2085    -0.1370  2859.6922 C.3      872 DT      0.0000
    243 C6        -4.9103    -2.5675  2859.3308 C.2      872 DT      0.0000
    244 H5'       -8.8064    -6.2765  2859.3806 H        872 DT      0.0000
    245 H5''      -8.6978    -6.0818  2857.6060 H        872 DT      0.0000
    246 H4'       -6.5634    -6.7494  2857.8601 H        872 DT      0.0000
    247 H3'       -7.0442    -6.5145  2860.6945 H        872 DT      0.0000
    248 H2'       -5.5216    -4.7472  2860.9784 H        872 DT      0.0000
    249 H2''      -4.3189    -6.0674  2860.7989 H        872 DT      0.0000
    250 H1'       -4.1193    -5.7096  2858.4316 H        872 DT      0.0000
    251 H3        -1.2402    -2.2490  2858.8192 H        872 DT      0.0000
    252 H6        -5.9749    -2.6831  2859.4711 H        872 DT      0.0000
    253 H71       -5.7400     0.1554  2858.7866 H        872 DT      0.0000
    254 H72       -4.5666     0.6818  2860.0169 H        872 DT      0.0000
    255 H73       -5.9283    -0.3679  2860.4775 H        872 DT      0.0000
    256 P         -6.0171    -8.8124  2861.0291 P.3      873 DG      0.0000
    257 OP1       -6.2943   -10.1287  2860.3141 O.co2    873 DG      0.0000
    258 OP2       -7.1473    -8.2995  2861.7827 O.co2    873 DG      0.0000
    259 O5'       -4.5077    -8.6916  2861.6387 O.3      873 DG      0.0000
    260 C5'       -3.5249    -8.8592  2860.5481 C.3      873 DG      0.0000
    261 C4'       -2.1889    -8.4169  2861.0681 C.3      873 DG      0.0000
    262 O4'       -1.8626    -7.0648  2860.8875 O.3      873 DG      0.0000
    263 C3'       -2.0109    -8.7196  2862.5761 C.3      873 DG      0.0000
    264 O3'       -0.7939    -9.4883  2862.7350 O.3      873 DG      0.0000
    265 C2'       -2.0345    -7.3538  2863.2287 C.3      873 DG      0.0000
    266 C1'       -1.4072    -6.4820  2862.1472 C.3      873 DG      0.0000
    267 N9        -1.7764    -5.0722  2862.3167 N.ar     873 DG      0.0000
    268 C8        -2.9907    -4.5403  2862.6529 C.ar     873 DG      0.0000
    269 N7        -3.0095    -3.2283  2862.7387 N.ar     873 DG      0.0000
    270 C5        -1.7030    -2.8755  2862.4086 C.ar     873 DG      0.0000
    271 C6        -1.0785    -1.5989  2862.3143 C.2      873 DG      0.0000
    272 O6        -1.5837    -0.4829  2862.5066 O.2      873 DG      0.0000
    273 N1         0.2555    -1.6418  2861.9792 N.am     873 DG      0.0000
    274 C2         0.9048    -2.8175  2861.7555 C.2      873 DG      0.0000
    275 N2         2.1996    -2.6680  2861.4467 N.pl3    873 DG      0.0000
    276 N3         0.3658    -4.0325  2861.8265 N.2      873 DG      0.0000
    277 C4        -0.9374    -3.9929  2862.1531 C.ar     873 DG      0.0000
    278 H5'       -3.4785    -9.9059  2860.2476 H        873 DG      0.0000
    279 H5''      -3.8112    -8.2431  2859.6957 H        873 DG      0.0000
    280 H4'       -1.4346    -8.9980  2860.5375 H        873 DG      0.0000
    281 H3'       -2.8588    -9.3056  2862.9309 H        873 DG      0.0000
    282 H2'       -3.0536    -7.0380  2863.4517 H        873 DG      0.0000
    283 H2''      -1.4231    -7.3475  2864.1311 H        873 DG      0.0000
    284 H1'       -0.3226    -6.5723  2862.2061 H        873 DG      0.0000
    285 H8        -3.8643    -5.1491  2862.8335 H        873 DG      0.0000
    286 H1         0.7682    -0.7755  2861.8969 H        873 DG      0.0000
    287 H21        2.6033    -1.7436  2861.3964 H        873 DG      0.0000
    288 H22        2.7722    -3.4798  2861.2640 H        873 DG      0.0000
    289 P         -0.3659   -10.0652  2864.1234 P.3      874 DA      0.0000
    290 OP1       -0.8827   -11.4216  2864.4788 O.co2    874 DA      0.0000
    291 OP2       -1.1254    -9.0189  2865.0192 O.co2    874 DA      0.0000
    292 O5'        1.1661    -9.7401  2864.3725 O.3      874 DA      0.0000
    293 C5'        2.1297    -9.4712  2863.3435 C.3      874 DA      0.0000
    294 C4'        2.8906    -8.2437  2863.8178 C.3      874 DA      0.0000
    295 O4'        2.0756    -7.0947  2863.7274 O.3      874 DA      0.0000
    296 C3'        3.4314    -8.2933  2865.2469 C.3      874 DA      0.0000
    297 O3'        4.8076    -7.8640  2865.2991 O.3      874 DA      0.0000
    298 C2'        2.4790    -7.3426  2865.9823 C.3      874 DA      0.0000
    299 C1'        2.3162    -6.2814  2864.9047 C.3      874 DA      0.0000
    300 N9         1.1860    -5.3754  2865.1331 N.ar     874 DA      0.0000
    301 C8        -0.1336    -5.6548  2865.3489 C.ar     874 DA      0.0000
    302 N7        -0.8840    -4.5883  2865.5139 N.ar     874 DA      0.0000
    303 C5         0.0039    -3.5321  2865.3737 C.ar     874 DA      0.0000
    304 C6        -0.1898    -2.1343  2865.4216 C.ar     874 DA      0.0000
    305 N6        -1.3661    -1.5422  2865.6414 N.pl3    874 DA      0.0000
    306 N1         0.9357    -1.3834  2865.2318 N.ar     874 DA      0.0000
    307 C2         2.1386    -1.9635  2865.0141 C.ar     874 DA      0.0000
    308 N3         2.3958    -3.2696  2864.9558 N.ar     874 DA      0.0000
    309 C4         1.2769    -3.9931  2865.1427 C.ar     874 DA      0.0000
    310 H5'        1.6300    -9.2681  2862.3963 H        874 DA      0.0000
    311 H5''       2.8098   -10.3162  2863.2357 H        874 DA      0.0000
    312 H4'        3.7387    -8.1010  2863.1480 H        874 DA      0.0000
    313 H3'        3.3379    -9.3024  2865.6483 H        874 DA      0.0000
    314 H2'        1.5320    -7.8233  2866.2278 H        874 DA      0.0000
    315 H2''       2.9502    -6.9275  2866.8732 H        874 DA      0.0000
    316 H1'        3.2394    -5.7134  2864.7902 H        874 DA      0.0000
    317 H8        -0.5250    -6.6609  2865.3810 H        874 DA      0.0000
    318 H2         2.9778    -1.2984  2864.8727 H        874 DA      0.0000
    319 H61       -2.2665    -1.9895  2865.5440 H        874 DA      0.0000
    320 H62       -1.4425    -0.5498  2865.4699 H        874 DA      0.0000
    321 P          5.8556    -8.4090  2866.4406 P.3      875 DA      0.0000
    322 OP1        6.9917    -9.1437  2865.7735 O.co2    875 DA      0.0000
    323 OP2        4.9633    -9.2428  2867.2715 O.co2    875 DA      0.0000
    324 O5'        6.5190    -7.0587  2866.9714 O.3      875 DA      0.0000
    325 C5'        7.2766    -6.1746  2866.1471 C.3      875 DA      0.0000
    326 C4'        7.0848    -4.7616  2866.6694 C.3      875 DA      0.0000
    327 O4'        5.7302    -4.4104  2866.6976 O.3      875 DA      0.0000
    328 C3'        7.6607    -4.4365  2868.0367 C.3      875 DA      0.0000
    329 O3'        8.6861    -3.4465  2867.9589 O.3      875 DA      0.0000
    330 C2'        6.4328    -4.0395  2868.8655 C.3      875 DA      0.0000
    331 C1'        5.4350    -3.5865  2867.8717 C.3      875 DA      0.0000
    332 N9         3.9933    -3.7376  2868.1397 N.ar     875 DA      0.0000
    333 C8         3.2306    -4.8745  2868.2549 C.ar     875 DA      0.0000
    334 N7         1.9496    -4.6466  2868.4242 N.ar     875 DA      0.0000
    335 C5         1.8520    -3.2593  2868.3872 C.ar     875 DA      0.0000
    336 C6         0.7349    -2.3844  2868.5076 C.ar     875 DA      0.0000
    337 N6        -0.5226    -2.7627  2868.6993 N.pl3    875 DA      0.0000
    338 N1         1.0177    -1.0449  2868.4095 N.ar     875 DA      0.0000
    339 C2         2.2999    -0.6174  2868.2204 C.ar     875 DA      0.0000
    340 N3         3.3841    -1.3770  2868.1125 N.ar     875 DA      0.0000
    341 C4         3.0907    -2.6896  2868.2044 C.ar     875 DA      0.0000
    342 H5'        6.9258    -6.2384  2865.1171 H        875 DA      0.0000
    343 H5''       8.3320    -6.4432  2866.1931 H        875 DA      0.0000
    344 H4'        7.5686    -4.0938  2865.9567 H        875 DA      0.0000
    345 H3'        8.0868    -5.3461  2868.4599 H        875 DA      0.0000
    346 H2'        6.0553    -4.8949  2869.4257 H        875 DA      0.0000
    347 H2''       6.6842    -3.2252  2869.5450 H        875 DA      0.0000
    348 H1'        5.6364    -2.5439  2867.6256 H        875 DA      0.0000
    349 H8         3.6489    -5.8691  2868.2100 H        875 DA      0.0000
    350 H2         2.4484     0.4501  2868.1512 H        875 DA      0.0000
    351 H61       -0.7634    -3.6878  2869.0255 H        875 DA      0.0000
    352 H62       -1.2643    -2.1030  2868.5125 H        875 DA      0.0000
    353 P          9.9991    -3.3684  2868.9151 P.3      876 DT      0.0000
    354 OP1       11.2520    -3.0239  2868.1178 O.co2    876 DT      0.0000
    355 OP2       10.1057    -4.5566  2869.7357 O.co2    876 DT      0.0000
    356 O5'        9.7308    -1.9645  2869.7288 O.3      876 DT      0.0000
    357 C5'        9.1746    -0.9535  2868.7837 C.3      876 DT      0.0000
    358 C4'        8.0899    -0.2636  2869.5714 C.3      876 DT      0.0000
    359 O4'        6.9388    -1.0548  2869.7634 O.3      876 DT      0.0000
    360 C3'        8.5548     0.1216  2870.9880 C.3      876 DT      0.0000
    361 O3'        8.9457     1.4822  2870.9897 O.3      876 DT      0.0000
    362 C2'        7.3636    -0.2051  2871.8853 C.3      876 DT      0.0000
    363 C1'        6.2621    -0.3954  2870.9207 C.3      876 DT      0.0000
    364 N1         5.1161    -1.2238  2871.2604 N.am     876 DT      0.0000
    365 C2         3.8920    -0.5770  2871.3984 C.2      876 DT      0.0000
    366 O2         3.8346     0.6427  2871.3103 O.2      876 DT      0.0000
    367 N3         2.7885    -1.3343  2871.6524 N.am     876 DT      0.0000
    368 C4         2.8384    -2.6936  2871.7725 C.2      876 DT      0.0000
    369 O4         1.7658    -3.3288  2872.0277 O.2      876 DT      0.0000
    370 C5         4.1066    -3.3401  2871.6009 C.2      876 DT      0.0000
    371 C7         4.2128    -4.8374  2871.6884 C.3      876 DT      0.0000
    372 C6         5.1914    -2.5888  2871.3451 C.2      876 DT      0.0000
    373 H5'        9.9440    -0.2428  2868.4821 H        876 DT      0.0000
    374 H5''       8.7511    -1.4466  2867.9087 H        876 DT      0.0000
    375 H4'        7.8018     0.6448  2869.0423 H        876 DT      0.0000
    376 H3'        9.4040    -0.4998  2871.2724 H        876 DT      0.0000
    377 H2'        7.5433    -1.1144  2872.4587 H        876 DT      0.0000
    378 H2''       7.1474     0.6299  2872.5517 H        876 DT      0.0000
    379 H1'        5.9030     0.5836  2870.6033 H        876 DT      0.0000
    380 H3         1.8968    -0.8714  2871.7561 H        876 DT      0.0000
    381 H6         6.1461    -3.0734  2871.2030 H        876 DT      0.0000
    382 H71        3.2309    -5.2600  2871.9015 H        876 DT      0.0000
    383 H72        4.5797    -5.2314  2870.7406 H        876 DT      0.0000
    384 H73        4.9050    -5.1066  2872.4862 H        876 DT      0.0000
    385 P          9.6779     2.2877  2872.0963 P.3      877 DT      0.0000
    386 OP1       10.3914     3.5209  2871.4842 O.co2    877 DT      0.0000
    387 OP2       10.6420     1.3491  2872.7263 O.co2    877 DT      0.0000
    388 O5'        8.4983     2.9217  2872.9786 O.3      877 DT      0.0000
    389 C5'        7.7702     3.9580  2872.2669 C.3      877 DT      0.0000
    390 C4'        6.4606     4.1717  2872.9430 C.3      877 DT      0.0000
    391 O4'        5.6095     3.0326  2872.9197 O.3      877 DT      0.0000
    392 C3'        6.5687     4.6133  2874.4097 C.3      877 DT      0.0000
    393 O3'        5.6534     5.6596  2874.6737 O.3      877 DT      0.0000
    394 C2'        6.1213     3.3281  2875.1460 C.3      877 DT      0.0000
    395 C1'        4.9569     2.9767  2874.2424 C.3      877 DT      0.0000
    396 N1         4.4460     1.6514  2874.5401 N.am     877 DT      0.0000
    397 C2         3.0737     1.4691  2874.5950 C.2      877 DT      0.0000
    398 O2         2.3357     2.4373  2874.4065 O.2      877 DT      0.0000
    399 N3         2.5983     0.2159  2874.8609 N.am     877 DT      0.0000
    400 C4         3.4255    -0.8451  2875.0679 C.2      877 DT      0.0000
    401 O4         2.9130    -1.9790  2875.2912 O.2      877 DT      0.0000
    402 C5         4.8355    -0.6467  2875.0028 C.2      877 DT      0.0000
    403 C7         5.8120    -1.7670  2875.2127 C.3      877 DT      0.0000
    404 C6         5.2851     0.5906  2874.7417 C.2      877 DT      0.0000
    405 H5'        8.3447     4.8843  2872.2793 H        877 DT      0.0000
    406 H5''       7.6029     3.6453  2871.2362 H        877 DT      0.0000
    407 H4'        5.9468     4.9681  2872.4045 H        877 DT      0.0000
    408 H3'        7.5887     4.8940  2874.6721 H        877 DT      0.0000
    409 H2'        6.8938     2.5592  2875.1448 H        877 DT      0.0000
    410 H2''       5.7840     3.5490  2876.1587 H        877 DT      0.0000
    411 H1'        4.1669     3.7239  2874.3181 H        877 DT      0.0000
    412 H3         1.5996     0.0720  2874.9053 H        877 DT      0.0000
    413 H6         6.3512     0.7549  2874.6886 H        877 DT      0.0000
    414 H71        5.2686    -2.6908  2875.4116 H        877 DT      0.0000
    415 H72        6.4215    -1.8899  2874.3174 H        877 DT      0.0000
    416 H73        6.4554    -1.5341  2876.0611 H        877 DT      0.0000
    417 P          5.7266     7.1046  2875.2817 P.3      878 DC      0.0000
    418 OP1        5.5369     8.1646  2874.2137 O.co2    878 DC      0.0000
    419 OP2        7.0037     7.1542  2876.0166 O.co2    878 DC      0.0000
    420 O5'        4.3225     7.0253  2876.1077 O.3      878 DC      0.0000
    421 C5'        3.3441     6.6093  2875.0854 C.3      878 DC      0.0000
    422 C4'        2.0239     6.4407  2875.7819 C.3      878 DC      0.0000
    423 O4'        1.7139     5.1042  2876.0288 O.3      878 DC      0.0000
    424 C3'        1.8673     7.2356  2877.0734 C.3      878 DC      0.0000
    425 O3'        0.7316     8.0868  2876.9937 O.3      878 DC      0.0000
    426 C2'        1.8652     6.1213  2878.1221 C.3      878 DC      0.0000
    427 C1'        1.2940     4.9501  2877.4257 C.3      878 DC      0.0000
    428 N1         1.8549     3.6367  2877.7578 N.am     878 DC      0.0000
    429 C2         0.9296     2.6271  2878.0136 C.2      878 DC      0.0000
    430 O2        -0.2842     2.8537  2878.0181 O.2      878 DC      0.0000
    431 N3         1.4201     1.3742  2878.2875 N.2      878 DC      0.0000
    432 C4         2.7593     1.1158  2878.2776 C.2      878 DC      0.0000
    433 N4         3.1351    -0.1280  2878.5544 N.pl3    878 DC      0.0000
    434 C5         3.6848     2.1456  2877.9995 C.2      878 DC      0.0000
    435 C6         3.1874     3.3712  2877.7347 C.2      878 DC      0.0000
    436 H5'        3.2640     7.3729  2874.3118 H        878 DC      0.0000
    437 H5''       3.6522     5.6628  2874.6412 H        878 DC      0.0000
    438 H4'        1.2629     6.8128  2875.0960 H        878 DC      0.0000
    439 H3'        2.7562     7.8499  2877.2167 H        878 DC      0.0000
    440 H2'        2.8797     5.9100  2878.4600 H        878 DC      0.0000
    441 H2''       1.2366     6.4006  2878.9677 H        878 DC      0.0000
    442 H1'        0.2071     4.9410  2877.5067 H        878 DC      0.0000
    443 H5         4.7486     1.9594  2877.9990 H        878 DC      0.0000
    444 H6         3.8732     4.1705  2877.4957 H        878 DC      0.0000
    445 H41        2.4400    -0.8331  2878.7536 H        878 DC      0.0000
    446 H42        4.1160    -0.3684  2878.5657 H        878 DC      0.0000
    447 P          0.4182     9.3630  2877.9457 P.3      879 DA      0.0000
    448 OP1       -0.4717    10.3002  2877.1520 O.co2    879 DA      0.0000
    449 OP2        1.7073     9.9960  2878.2913 O.co2    879 DA      0.0000
    450 O5'       -0.3559     8.7097  2879.2428 O.3      879 DA      0.0000
    451 C5'       -1.5095     7.8641  2878.9475 C.3      879 DA      0.0000
    452 C4'       -2.0497     7.2615  2880.2028 C.3      879 DA      0.0000
    453 O4'       -1.6551     5.9077  2880.4449 O.3      879 DA      0.0000
    454 C3'       -1.6322     7.9594  2881.5080 C.3      879 DA      0.0000
    455 O3'       -2.5503     7.5858  2882.5380 O.3      879 DA      0.0000
    456 C2'       -0.2613     7.2873  2881.7226 C.3      879 DA      0.0000
    457 C1'       -0.7437     5.8444  2881.5394 C.3      879 DA      0.0000
    458 N9         0.4078     4.9632  2881.4450 N.ar     879 DA      0.0000
    459 C8         1.7402     5.2481  2881.3292 C.ar     879 DA      0.0000
    460 N7         2.5365     4.1943  2881.3106 N.ar     879 DA      0.0000
    461 C5         1.6537     3.1290  2881.4181 C.ar     879 DA      0.0000
    462 C6         1.8573     1.7274  2881.4527 C.ar     879 DA      0.0000
    463 N6         3.0371     1.1396  2881.3674 N.pl3    879 DA      0.0000
    464 N1         0.7357     0.9600  2881.5852 N.ar     879 DA      0.0000
    465 C2        -0.5080     1.5277  2881.6654 C.ar     879 DA      0.0000
    466 N3        -0.7787     2.8304  2881.6356 N.ar     879 DA      0.0000
    467 C4         0.3462     3.5770  2881.5126 C.ar     879 DA      0.0000
    468 H5'       -2.2854     8.4674  2878.4764 H        879 DA      0.0000
    469 H5''      -1.2083     7.0683  2878.2662 H        879 DA      0.0000
    470 H4'       -3.1378     7.2866  2880.1439 H        879 DA      0.0000
    471 H3'       -1.5522     9.0404  2881.3944 H        879 DA      0.0000
    472 H2'        0.4717     7.5823  2880.9719 H        879 DA      0.0000
    473 H2''       0.1121     7.4574  2882.7325 H        879 DA      0.0000
    474 H1'       -1.3077     5.5643  2882.4290 H        879 DA      0.0000
    475 H8         2.1136     6.2591  2881.2582 H        879 DA      0.0000
    476 H2        -1.3476     0.8553  2881.7619 H        879 DA      0.0000
    477 H61        3.3715     0.2037  2881.5475 H        879 DA      0.0000
    478 H62        3.7659     1.7640  2881.0527 H        879 DA      0.0000
    479 P         -3.9789     8.2928  2882.6784 P.3      880 DC      0.0000
    480 OP1       -4.4168     8.9849  2881.4333 O.co2    880 DC      0.0000
    481 OP2       -3.7531     9.2399  2883.8213 O.co2    880 DC      0.0000
    482 O5'       -4.9597     7.0794  2882.9616 O.3      880 DC      0.0000
    483 C5'       -5.4802     6.2567  2881.8739 C.3      880 DC      0.0000
    484 C4'       -5.6887     4.9116  2882.5788 C.3      880 DC      0.0000
    485 O4'       -4.4142     4.3987  2882.8908 O.3      880 DC      0.0000
    486 C3'       -6.4653     5.0169  2883.8887 C.3      880 DC      0.0000
    487 O3'       -7.5812     4.1005  2883.9566 O.3      880 DC      0.0000
    488 C2'       -5.4048     4.7639  2884.9709 C.3      880 DC      0.0000
    489 C1'       -4.4711     3.8440  2884.2948 C.3      880 DC      0.0000
    490 N1        -3.0544     3.7999  2884.6476 N.am     880 DC      0.0000
    491 C2        -2.4766     2.5320  2884.6207 C.2      880 DC      0.0000
    492 O2        -3.1249     1.5139  2884.4138 O.2      880 DC      0.0000
    493 N3        -1.1429     2.4476  2884.8738 N.2      880 DC      0.0000
    494 C4        -0.3760     3.5400  2885.1072 C.2      880 DC      0.0000
    495 N4         0.9185     3.3295  2885.3381 N.pl3    880 DC      0.0000
    496 C5        -0.9747     4.8298  2885.1137 C.2      880 DC      0.0000
    497 C6        -2.2912     4.9053  2884.8643 C.2      880 DC      0.0000
    498 H5'       -6.4194     6.6539  2881.4890 H        880 DC      0.0000
    499 H5''      -4.7446     6.1634  2881.0749 H        880 DC      0.0000
    500 H4'       -6.2022     4.2246  2881.9062 H        880 DC      0.0000
    501 H3'       -6.8396     6.0351  2883.9946 H        880 DC      0.0000
    502 H2'       -4.9065     5.6899  2885.2579 H        880 DC      0.0000
    503 H2''      -5.8525     4.2840  2885.8412 H        880 DC      0.0000
    504 H1'       -4.8843     2.8354  2884.2815 H        880 DC      0.0000
    505 H5        -0.3911     5.7166  2885.3122 H        880 DC      0.0000
    506 H6        -2.7612     5.8772  2884.8346 H        880 DC      0.0000
    507 H41        1.2871     2.3892  2885.3271 H        880 DC      0.0000
    508 H42        1.5318     4.1102  2885.5243 H        880 DC      0.0000
    509 P          6.7254    -5.1784  2886.9162 P.3      880 DG      0.0000
    510 OP1        7.9416    -6.0303  2887.0949 O.co2    880 DG      0.0000
    511 OP2        6.8912    -4.1223  2885.8313 O.co2    880 DG      0.0000
    512 O5'        5.4085    -6.1438  2886.7089 O.3      880 DG      0.0000
    513 C5'        4.4439    -6.2809  2887.8047 C.3      880 DG      0.0000
    514 C4'        3.0561    -6.3373  2887.1704 C.3      880 DG      0.0000
    515 O4'        2.4705    -5.0676  2887.0746 O.3      880 DG      0.0000
    516 C3'        3.0280    -6.9300  2885.7641 C.3      880 DG      0.0000
    517 O3'        1.8889    -7.7805  2885.4971 O.3      880 DG      0.0000
    518 C2'        3.0244    -5.6828  2884.8618 C.3      880 DG      0.0000
    519 C1'        2.1647    -4.7385  2885.6856 C.3      880 DG      0.0000
    520 N9         2.5095    -3.3329  2885.4123 N.ar     880 DG      0.0000
    521 C8         3.7602    -2.7845  2885.2556 C.ar     880 DG      0.0000
    522 N7         3.7517    -1.4964  2885.0372 N.ar     880 DG      0.0000
    523 C5         2.4016    -1.1671  2885.0620 C.ar     880 DG      0.0000
    524 C6         1.7372     0.0786  2884.9056 C.2      880 DG      0.0000
    525 O6         2.2682     1.1809  2884.7087 O.2      880 DG      0.0000
    526 N1         0.3689     0.0041  2884.9925 N.am     880 DG      0.0000
    527 C2        -0.2883    -1.1608  2885.2132 C.2      880 DG      0.0000
    528 N2        -1.6144    -1.0783  2885.2765 N.pl3    880 DG      0.0000
    529 N3         0.2881    -2.3586  2885.3709 N.2      880 DG      0.0000
    530 C4         1.6307    -2.2849  2885.2876 C.ar     880 DG      0.0000
    531 H5'        4.6384    -7.1969  2888.3625 H        880 DG      0.0000
    532 H5''       4.5131    -5.4200  2888.4696 H        880 DG      0.0000
    533 H4'        2.4208    -6.9529  2887.8071 H        880 DG      0.0000
    534 H3'        3.9450    -7.4940  2885.5936 H        880 DG      0.0000
    535 H2'        4.0303    -5.2881  2884.7191 H        880 DG      0.0000
    536 H2''       2.5532    -5.8993  2883.9030 H        880 DG      0.0000
    537 H1'        1.1087    -4.9143  2885.4804 H        880 DG      0.0000
    538 H8         4.6686    -3.3663  2885.3084 H        880 DG      0.0000
    539 H1        -0.1700     0.8519  2884.8877 H        880 DG      0.0000
    540 H21       -2.0709    -0.1847  2885.1614 H        880 DG      0.0000
    541 H22       -2.1649    -1.9093  2885.4397 H        880 DG      0.0000
    542 P          1.3934    -7.8180  2883.9736 P.3      879 DT      0.0000
    543 OP1        0.7311    -9.1116  2883.5827 O.co2    879 DT      0.0000
    544 OP2        2.6896    -7.6447  2883.2731 O.co2    879 DT      0.0000
    545 O5'        0.3532    -6.6063  2883.8427 O.3      879 DT      0.0000
    546 C5'       -1.0527    -6.9125  2884.1103 C.3      879 DT      0.0000
    547 C4'       -1.9104    -5.9220  2883.3533 C.3      879 DT      0.0000
    548 O4'       -1.3555    -4.6190  2883.3260 O.3      879 DT      0.0000
    549 C3'       -2.1260    -6.3098  2881.8986 C.3      879 DT      0.0000
    550 O3'       -3.4518    -6.0223  2881.4035 O.3      879 DT      0.0000
    551 C2'       -1.0681    -5.5059  2881.1757 C.3      879 DT      0.0000
    552 C1'       -1.1710    -4.2046  2881.9538 C.3      879 DT      0.0000
    553 N1         0.1210    -3.5171  2881.8025 N.am     879 DT      0.0000
    554 C2         0.0955    -2.1303  2881.9093 C.2      879 DT      0.0000
    555 O2        -0.9630    -1.5409  2882.0990 O.2      879 DT      0.0000
    556 N3         1.2880    -1.4731  2881.7891 N.am     879 DT      0.0000
    557 C4         2.4582    -2.1366  2881.5715 C.2      879 DT      0.0000
    558 O4         3.5203    -1.4372  2881.4740 O.2      879 DT      0.0000
    559 C5         2.4526    -3.5568  2881.4652 C.2      879 DT      0.0000
    560 C7         3.7379    -4.2993  2881.2362 C.3      879 DT      0.0000
    561 C6         1.2850    -4.1936  2881.5869 C.2      879 DT      0.0000
    562 H5'       -1.2786    -7.9253  2883.7766 H        879 DT      0.0000
    563 H5''      -1.2496    -6.8262  2885.1789 H        879 DT      0.0000
    564 H4'       -2.8837    -5.8693  2883.8412 H        879 DT      0.0000
    565 H3'       -1.9180    -7.3725  2881.7746 H        879 DT      0.0000
    566 H2'       -0.0803    -5.9578  2881.2673 H        879 DT      0.0000
    567 H2''      -1.3355    -5.3585  2880.1293 H        879 DT      0.0000
    568 H1'       -1.9994    -3.5890  2881.6032 H        879 DT      0.0000
    569 H3         1.3023    -0.4660  2881.8638 H        879 DT      0.0000
    570 H6         1.2623    -5.2708  2881.5128 H        879 DT      0.0000
    571 H71        4.5614    -3.5885  2881.1675 H        879 DT      0.0000
    572 H72        3.9158    -4.9819  2882.0671 H        879 DT      0.0000
    573 H73        3.6693    -4.8668  2880.3081 H        879 DT      0.0000
    574 P         -3.9889    -7.3862  2880.6251 P.3      878 DG      0.0000
    575 OP1       -4.8049    -8.2847  2881.4963 O.co2    878 DG      0.0000
    576 OP2       -2.6727    -7.9395  2880.2195 O.co2    878 DG      0.0000
    577 O5'       -4.9710    -6.7365  2879.5443 O.3      878 DG      0.0000
    578 C5'       -6.2885    -6.3031  2879.9677 C.3      878 DG      0.0000
    579 C4'       -6.3829    -4.8499  2879.5200 C.3      878 DG      0.0000
    580 O4'       -5.1629    -4.1892  2879.7907 O.3      878 DG      0.0000
    581 C3'       -6.6831    -4.6669  2878.0323 C.3      878 DG      0.0000
    582 O3'       -7.8406    -3.8777  2877.8238 O.3      878 DG      0.0000
    583 C2'       -5.3959    -4.1048  2877.4556 C.3      878 DG      0.0000
    584 C1'       -4.7771    -3.4036  2878.6417 C.3      878 DG      0.0000
    585 N9        -3.3178    -3.3545  2878.5181 N.ar     878 DG      0.0000
    586 C8        -2.4446    -4.3932  2878.3593 C.ar     878 DG      0.0000
    587 N7        -1.1903    -4.0208  2878.2812 N.ar     878 DG      0.0000
    588 C5        -1.2393    -2.6367  2878.4187 C.ar     878 DG      0.0000
    589 C6        -0.2192    -1.6491  2878.4282 C.2      878 DG      0.0000
    590 O6         0.9898    -1.8321  2878.3291 O.2      878 DG      0.0000
    591 N1        -0.6696    -0.3682  2878.5772 N.am     878 DG      0.0000
    592 C2        -2.0052    -0.0746  2878.7101 C.2      878 DG      0.0000
    593 N2        -2.3069     1.2171  2878.8457 N.pl3    878 DG      0.0000
    594 N3        -3.0128    -0.9532  2878.7143 N.2      878 DG      0.0000
    595 C4        -2.5512    -2.2181  2878.5636 C.ar     878 DG      0.0000
    596 H5'       -7.0623    -6.9033  2879.4890 H        878 DG      0.0000
    597 H5''      -6.3767    -6.3699  2881.0521 H        878 DG      0.0000
    598 H4'       -7.1724    -4.3637  2880.0930 H        878 DG      0.0000
    599 H3'       -6.8548    -5.6498  2877.5937 H        878 DG      0.0000
    600 H2'       -4.7489    -4.9018  2877.0892 H        878 DG      0.0000
    601 H2''      -5.6124    -3.3918  2876.6600 H        878 DG      0.0000
    602 H1'       -5.1781    -2.3938  2878.7287 H        878 DG      0.0000
    603 H8        -2.7586    -5.4250  2878.3032 H        878 DG      0.0000
    604 H1         0.0006     0.3873  2878.5900 H        878 DG      0.0000
    605 H21       -1.5720     1.9099  2878.8467 H        878 DG      0.0000
    606 H22       -3.2702     1.5026  2878.9475 H        878 DG      0.0000
    607 P         -8.1833    -2.6013  2876.9575 P.3      877 DA      0.0000
    608 OP1       -9.1167    -1.6679  2877.7388 O.co2    877 DA      0.0000
    609 OP2       -8.8582    -3.1184  2875.7648 O.co2    877 DA      0.0000
    610 O5'       -6.7863    -1.7817  2876.7827 O.3      877 DA      0.0000
    611 C5'       -6.5242    -0.9012  2877.9391 C.3      877 DA      0.0000
    612 C4'       -6.5175     0.5122  2877.4113 C.3      877 DA      0.0000
    613 O4'       -5.2175     0.9968  2877.1890 O.3      877 DA      0.0000
    614 C3'       -7.2380     0.6509  2876.0708 C.3      877 DA      0.0000
    615 O3'       -8.0197     1.8190  2875.9956 O.3      877 DA      0.0000
    616 C2'       -6.1033     0.4955  2875.0742 C.3      877 DA      0.0000
    617 C1'       -4.8445     0.8842  2875.7981 C.3      877 DA      0.0000
    618 N9        -3.7643    -0.0913  2875.5726 N.ar     877 DA      0.0000
    619 C8        -3.8526    -1.4539  2875.3862 C.ar     877 DA      0.0000
    620 N7        -2.6989    -2.0496  2875.1903 N.ar     877 DA      0.0000
    621 C5        -1.7842    -1.0076  2875.2772 C.ar     877 DA      0.0000
    622 C6        -0.3738    -0.9893  2875.1715 C.ar     877 DA      0.0000
    623 N6         0.3618    -2.0662  2874.9591 N.pl3    877 DA      0.0000
    624 N1         0.2200     0.2299  2875.2953 N.ar     877 DA      0.0000
    625 C2        -0.5148     1.3591  2875.5198 C.ar     877 DA      0.0000
    626 N3        -1.8402     1.4098  2875.6357 N.ar     877 DA      0.0000
    627 C4        -2.4190     0.1922  2875.4995 C.ar     877 DA      0.0000
    628 H5'       -7.3080    -1.0195  2878.6872 H        877 DA      0.0000
    629 H5''      -5.5543    -1.1396  2878.3758 H        877 DA      0.0000
    630 H4'       -7.0096     1.1575  2878.1390 H        877 DA      0.0000
    631 H3'       -7.9030    -0.2053  2875.9577 H        877 DA      0.0000
    632 H2'       -6.2624     1.1500  2874.2174 H        877 DA      0.0000
    633 H2''      -6.0377    -0.5411  2874.7437 H        877 DA      0.0000
    634 H1'       -4.5187     1.8607  2875.4399 H        877 DA      0.0000
    635 H8        -4.7918    -1.9870  2875.4001 H        877 DA      0.0000
    636 H2         0.0252     2.2899  2875.6110 H        877 DA      0.0000
    637 H61        1.3201    -2.1149  2875.2745 H        877 DA      0.0000
    638 H62       -0.0412    -2.8544  2874.4728 H        877 DA      0.0000
    639 P         -8.2730     2.8336  2874.8110 P.3      876 DA      0.0000
    640 OP1       -9.0021     4.1069  2875.3309 O.co2    876 DA      0.0000
    641 OP2       -9.1829     2.0996  2873.8773 O.co2    876 DA      0.0000
    642 O5'       -6.8653     3.3312  2874.3083 O.3      876 DA      0.0000
    643 C5'       -6.3433     4.5965  2874.7642 C.3      876 DA      0.0000
    644 C4'       -5.0194     4.8068  2874.0622 C.3      876 DA      0.0000
    645 O4'       -4.2418     3.6499  2873.9415 O.3      876 DA      0.0000
    646 C3'       -5.1610     5.3844  2872.6547 C.3      876 DA      0.0000
    647 O3'       -4.6036     6.7119  2872.6233 O.3      876 DA      0.0000
    648 C2'       -4.5408     4.3138  2871.7552 C.3      876 DA      0.0000
    649 C1'       -3.5427     3.6476  2872.6529 C.3      876 DA      0.0000
    650 N9        -3.2251     2.2553  2872.3534 N.ar     876 DA      0.0000
    651 C8        -4.0770     1.1877  2872.1586 C.ar     876 DA      0.0000
    652 N7        -3.4584     0.0464  2871.9532 N.ar     876 DA      0.0000
    653 C5        -2.1177     0.3704  2872.0277 C.ar     876 DA      0.0000
    654 C6        -0.9491    -0.4124  2871.8942 C.ar     876 DA      0.0000
    655 N6        -0.9572    -1.7195  2871.6510 N.pl3    876 DA      0.0000
    656 N1         0.2314     0.2703  2872.0431 N.ar     876 DA      0.0000
    657 C2         0.2707     1.5928  2872.2956 C.ar     876 DA      0.0000
    658 N3        -0.7895     2.3945  2872.4344 N.ar     876 DA      0.0000
    659 C4        -1.9511     1.7190  2872.2872 C.ar     876 DA      0.0000
    660 H5'       -7.0340     5.4002  2874.5090 H        876 DA      0.0000
    661 H5''      -6.1904     4.5675  2875.8430 H        876 DA      0.0000
    662 H4'       -4.4480     5.5232  2874.6524 H        876 DA      0.0000
    663 H3'       -6.2231     5.4545  2872.4197 H        876 DA      0.0000
    664 H2'       -5.2952     3.6042  2871.4153 H        876 DA      0.0000
    665 H2''      -4.0399     4.7746  2870.9038 H        876 DA      0.0000
    666 H1'       -2.6305     4.2411  2872.7140 H        876 DA      0.0000
    667 H8        -5.1528     1.2812  2872.1736 H        876 DA      0.0000
    668 H2         1.2461     2.0458  2872.3946 H        876 DA      0.0000
    669 H61       -0.1296    -2.2182  2871.9450 H        876 DA      0.0000
    670 H62       -1.7361    -2.1813  2871.2038 H        876 DA      0.0000
    671 P         -4.6212     7.5326  2871.2383 P.3      875 DT      0.0000
    672 OP1       -4.3355     9.0017  2871.2964 O.co2    875 DT      0.0000
    673 OP2       -5.9760     7.1630  2870.7257 O.co2    875 DT      0.0000
    674 O5'       -3.2862     6.8247  2870.5352 O.3      875 DT      0.0000
    675 C5'       -2.2460     6.6700  2871.5475 C.3      875 DT      0.0000
    676 C4'       -0.9201     6.5628  2870.8645 C.3      875 DT      0.0000
    677 O4'       -0.4898     5.2468  2870.6841 O.3      875 DT      0.0000
    678 C3'       -0.8648     7.2389  2869.5033 C.3      875 DT      0.0000
    679 O3'        0.3960     7.8650  2869.2360 O.3      875 DT      0.0000
    680 C2'       -1.1987     6.0371  2868.6099 C.3      875 DT      0.0000
    681 C1'       -0.3739     4.9409  2869.2500 C.3      875 DT      0.0000
    682 N1        -0.9765     3.6143  2869.0200 N.am     875 DT      0.0000
    683 C2        -0.1189     2.5352  2868.8984 C.2      875 DT      0.0000
    684 O2         1.1034     2.6857  2868.9352 O.2      875 DT      0.0000
    685 N3        -0.6691     1.2934  2868.7310 N.am     875 DT      0.0000
    686 C4        -2.0150     1.1037  2868.6824 C.2      875 DT      0.0000
    687 O4        -2.4360    -0.0770  2868.4969 O.2      875 DT      0.0000
    688 C5        -2.8798     2.2241  2868.8308 C.2      875 DT      0.0000
    689 C7        -4.3792     2.0515  2868.7787 C.3      875 DT      0.0000
    690 C6        -2.3269     3.4292  2869.0038 C.2      875 DT      0.0000
    691 H5'       -2.2479     7.5359  2872.2096 H        875 DT      0.0000
    692 H5''      -2.4323     5.7661  2872.1275 H        875 DT      0.0000
    693 H4'       -0.1874     7.0582  2871.5016 H        875 DT      0.0000
    694 H3'       -1.6617     7.9790  2869.4313 H        875 DT      0.0000
    695 H2'       -2.2628     5.8028  2868.6405 H        875 DT      0.0000
    696 H2''      -0.8729     6.2162  2867.5853 H        875 DT      0.0000
    697 H1'        0.6632     4.9731  2868.9160 H        875 DT      0.0000
    698 H3        -0.0579     0.4945  2868.6408 H        875 DT      0.0000
    699 H6        -2.9724     4.2852  2869.1352 H        875 DT      0.0000
    700 H71       -4.7364     2.2752  2867.7736 H        875 DT      0.0000
    701 H72       -4.8478     2.7314  2869.4903 H        875 DT      0.0000
    702 H73       -4.6357     1.0237  2869.0353 H        875 DT      0.0000
    703 P          0.5591     8.5192  2867.7461 P.3      874 DT      0.0000
    704 OP1        0.6772    10.0373  2867.8941 O.co2    874 DT      0.0000
    705 OP2       -0.7406     8.1763  2867.0763 O.co2    874 DT      0.0000
    706 O5'        1.8185     7.8937  2867.0940 O.3      874 DT      0.0000
    707 C5'        2.9464     7.4451  2867.8454 C.3      874 DT      0.0000
    708 C4'        3.5914     6.3226  2867.0974 C.3      874 DT      0.0000
    709 O4'        2.9277     5.0889  2867.0405 O.3      874 DT      0.0000
    710 C3'        3.9989     6.5849  2865.6314 C.3      874 DT      0.0000
    711 O3'        5.1951     5.8067  2865.5276 O.3      874 DT      0.0000
    712 C2'        2.8298     5.9491  2864.8676 C.3      874 DT      0.0000
    713 C1'        2.7858     4.6485  2865.6434 C.3      874 DT      0.0000
    714 N1         1.5410     3.8821  2865.5372 N.am     874 DT      0.0000
    715 C2         1.6915     2.4889  2865.5366 C.2      874 DT      0.0000
    716 O2         2.8088     1.9697  2865.5796 O.2      874 DT      0.0000
    717 N3         0.5505     1.7411  2865.4831 N.am     874 DT      0.0000
    718 C4        -0.6933     2.2958  2865.4234 C.2      874 DT      0.0000
    719 O4        -1.6908     1.5158  2865.3610 O.2      874 DT      0.0000
    720 C5        -0.8173     3.7120  2865.4316 C.2      874 DT      0.0000
    721 C7        -2.1931     4.3418  2865.3702 C.3      874 DT      0.0000
    722 C6         0.3015     4.4395  2865.4981 C.2      874 DT      0.0000
    723 H5'        3.6568     8.2627  2867.9676 H        874 DT      0.0000
    724 H5''       2.6192     7.0938  2868.8240 H        874 DT      0.0000
    725 H4'        4.5244     6.1237  2867.6247 H        874 DT      0.0000
    726 H3'        4.1453     7.6405  2865.4027 H        874 DT      0.0000
    727 H2'        3.0552     5.7971  2863.8121 H        874 DT      0.0000
    728 H2''       1.9114     6.5212  2864.9992 H        874 DT      0.0000
    729 H1'        3.6325     4.0213  2865.3643 H        874 DT      0.0000
    730 H3         0.6314     0.7344  2865.4880 H        874 DT      0.0000
    731 H6         0.2176     5.5160  2865.5218 H        874 DT      0.0000
    732 H71       -2.9499     3.5588  2865.3214 H        874 DT      0.0000
    733 H72       -2.2648     4.9718  2864.4836 H        874 DT      0.0000
    734 H73       -2.3551     4.9485  2866.2611 H        874 DT      0.0000
    735 P          6.2411     5.8555  2864.3814 P.3      873 DC      0.0000
    736 OP1        7.6397     5.9703  2864.9905 O.co2    873 DC      0.0000
    737 OP2        5.9303     7.0931  2863.5996 O.co2    873 DC      0.0000
    738 O5'        5.9636     4.4306  2863.6420 O.3      873 DC      0.0000
    739 C5'        6.4508     3.2537  2864.3665 C.3      873 DC      0.0000
    740 C4'        6.8846     2.2647  2863.3160 C.3      873 DC      0.0000
    741 O4'        5.9049     1.2827  2863.0707 O.3      873 DC      0.0000
    742 C3'        7.2218     2.8682  2861.9516 C.3      873 DC      0.0000
    743 O3'        8.2633     2.1936  2861.2423 O.3      873 DC      0.0000
    744 C2'        5.8503     2.8051  2861.2654 C.3      873 DC      0.0000
    745 C1'        5.2686     1.5028  2861.8120 C.3      873 DC      0.0000
    746 N1         3.8012     1.6723  2861.9298 N.am     873 DC      0.0000
    747 C2         3.0287     0.5119  2861.9471 C.2      873 DC      0.0000
    748 O2         3.5536    -0.6080  2861.8784 O.2      873 DC      0.0000
    749 N3         1.6724     0.6638  2862.0503 N.2      873 DC      0.0000
    750 C4         1.0859     1.8874  2862.1210 C.2      873 DC      0.0000
    751 N4        -0.2415     1.9839  2862.2230 N.pl3    873 DC      0.0000
    752 C5         1.8975     3.0558  2862.0959 C.2      873 DC      0.0000
    753 C6         3.2299     2.9056  2862.0023 C.2      873 DC      0.0000
    754 H5'        7.2939     3.5237  2865.0025 H        873 DC      0.0000
    755 H5''       5.6489     2.8289  2864.9704 H        873 DC      0.0000
    756 H4'        7.7767     1.7586  2863.6847 H        873 DC      0.0000
    757 H3'        7.5033     3.9126  2862.0857 H        873 DC      0.0000
    758 H2'        5.9536     2.7660  2860.1811 H        873 DC      0.0000
    759 H2''       5.2341     3.6541  2861.5614 H        873 DC      0.0000
    760 H1'        5.4944     0.6809  2861.1326 H        873 DC      0.0000
    761 H5         1.4540     4.0390  2862.1507 H        873 DC      0.0000
    762 H6         3.8606     3.7822  2861.9842 H        873 DC      0.0000
    763 H41       -0.8085     1.1484  2862.2437 H        873 DC      0.0000
    764 H42       -0.6789     2.8926  2862.2794 H        873 DC      0.0000
    765 P          8.3318     1.9700  2859.6103 P.3      872 DA      0.0000
    766 OP1        9.7783     1.7541  2859.2208 O.co2    872 DA      0.0000
    767 OP2        7.7075     3.1948  2859.0402 O.co2    872 DA      0.0000
    768 O5'        7.5597     0.5826  2859.4447 O.3      872 DA      0.0000
    769 C5'        8.2398    -0.6473  2859.9102 C.3      872 DA      0.0000
    770 C4'        7.5968    -1.7079  2859.0329 C.3      872 DA      0.0000
    771 O4'        6.1899    -1.7695  2859.3002 O.3      872 DA      0.0000
    772 C3'        7.6925    -1.3974  2857.5285 C.3      872 DA      0.0000
    773 O3'        7.4344    -2.5478  2856.7394 O.3      872 DA      0.0000
    774 C2'        6.4611    -0.4922  2857.3410 C.3      872 DA      0.0000
    775 C1'        5.4865    -1.4373  2858.0957 C.3      872 DA      0.0000
    776 N9         4.2614    -0.6577  2858.2411 N.ar     872 DA      0.0000
    777 C8         4.1678     0.7141  2858.3140 C.ar     872 DA      0.0000
    778 N7         2.9369     1.1456  2858.4286 N.ar     872 DA      0.0000
    779 C5         2.1721    -0.0346  2858.4222 C.ar     872 DA      0.0000
    780 C6         0.7680    -0.2358  2858.5222 C.ar     872 DA      0.0000
    781 N6        -0.1181     0.7568  2858.6450 N.pl3    872 DA      0.0000
    782 N1         0.3825    -1.5420  2858.4870 N.ar     872 DA      0.0000
    783 C2         1.2815    -2.5497  2858.3681 C.ar     872 DA      0.0000
    784 N3         2.6094    -2.4330  2858.2766 N.ar     872 DA      0.0000
    785 C4         2.9776    -1.1402  2858.3042 C.ar     872 DA      0.0000
    786 H5'        9.3156    -0.5933  2859.7434 H        872 DA      0.0000
    787 H5''       8.0219    -0.8334  2860.9618 H        872 DA      0.0000
    788 H4'        8.0515    -2.6773  2859.2369 H        872 DA      0.0000
    789 H3'        8.6251    -0.9018  2857.2589 H        872 DA      0.0000
    790 H2'        6.5700     0.4795  2857.8227 H        872 DA      0.0000
    791 H2''       6.1914    -0.3922  2856.2897 H        872 DA      0.0000
    792 H1'        5.2971    -2.3350  2857.5073 H        872 DA      0.0000
    793 H8         5.0255     1.3697  2858.2799 H        872 DA      0.0000
    794 H2         0.8821    -3.5528  2858.3449 H        872 DA      0.0000
    795 H61        0.1979     1.7157  2858.6697 H        872 DA      0.0000
    796 H62       -1.1040     0.5480  2858.7131 H        872 DA      0.0000
    797 P          8.4451    -2.9932  2855.5985 P.3      871 DC      0.0000
    798 OP1        9.4817    -3.7846  2856.3788 O.co2    871 DC      0.0000
    799 OP2        9.0175    -1.8536  2854.8729 O.co2    871 DC      0.0000
    800 O5'        7.4398    -3.8543  2854.6226 O.3      871 DC      0.0000
    801 C5'        6.6504    -4.9107  2855.2917 C.3      871 DC      0.0000
    802 C4'        5.2905    -4.9713  2854.6476 C.3      871 DC      0.0000
    803 O4'        4.3172    -4.1528  2855.2848 O.3      871 DC      0.0000
    804 C3'        5.3086    -4.5447  2853.1698 C.3      871 DC      0.0000
    805 O3'        4.3650    -5.2331  2852.3585 O.3      871 DC      0.0000
    806 C2'        4.8514    -3.0583  2853.3355 C.3      871 DC      0.0000
    807 C1'        3.6205    -3.4553  2854.2310 C.3      871 DC      0.0000
    808 N1         2.8678    -2.2515  2854.4689 N.am     871 DC      0.0000
    809 C2         1.5239    -2.3648  2854.7861 C.2      871 DC      0.0000
    810 O2         0.8281    -3.3768  2854.9266 O.2      871 DC      0.0000
    811 N3         0.8124    -1.2141  2854.9843 N.2      871 DC      0.0000
    812 C4         1.3866     0.0219  2854.8683 C.2      871 DC      0.0000
    813 N4         0.6508     1.1234  2855.0844 N.pl3    871 DC      0.0000
    814 C5         2.7665     0.1221  2854.5387 C.2      871 DC      0.0000
    815 C6         3.4412    -1.0175  2854.3470 C.2      871 DC      0.0000
    816 H5'        7.1531    -5.8714  2855.1802 H        871 DC      0.0000
    817 H5''       6.5441    -4.6735  2856.3503 H        871 DC      0.0000
    818 H4'        4.9431    -6.0034  2854.6944 H        871 DC      0.0000
    819 H3'        6.3129    -4.6069  2852.7508 H        871 DC      0.0000
    820 H2'        5.5810    -2.4352  2853.8526 H        871 DC      0.0000
    821 H2''       4.5405    -2.6198  2852.3872 H        871 DC      0.0000
    822 H1'        2.9968    -4.1640  2853.6861 H        871 DC      0.0000
    823 H5         3.2519     1.0825  2854.4466 H        871 DC      0.0000
    824 H6         4.4870    -0.9590  2854.0837 H        871 DC      0.0000
    825 H41       -0.3265     1.0387  2855.3249 H        871 DC      0.0000
    826 H42        1.0743     2.0370  2855.0065 H        871 DC      0.0000
    827 P         -9.5892     2.9032  2888.9577 P.3      881 DG      0.0000
    828 OP1      -10.6341     3.9567  2888.9561 O.co2    881 DG      0.0000
    829 OP2       -8.5510     3.3104  2890.0134 O.co2    881 DG      0.0000
    830 O5'      -10.0832     1.4013  2889.1361 O.3      881 DG      0.0000
    831 C5'      -10.2431     0.3728  2888.1361 C.3      881 DG      0.0000
    832 C4'       -9.5548    -0.8807  2888.6349 C.3      881 DG      0.0000
    833 O4'       -8.2090    -0.9498  2888.2157 O.3      881 DG      0.0000
    834 C3'       -9.5572    -1.1445  2890.1271 C.3      881 DG      0.0000
    835 O3'      -10.0934    -2.4585  2890.4391 O.3      881 DG      0.0000
    836 C2'       -8.1105    -0.9708  2890.5490 C.3      881 DG      0.0000
    837 C1'       -7.3349    -1.2879  2889.2933 C.3      881 DG      0.0000
    838 N9        -6.0815    -0.5125  2889.2643 N.ar     881 DG      0.0000
    839 C8        -5.8799     0.8281  2889.4931 C.ar     881 DG      0.0000
    840 N7        -4.6243     1.2049  2889.4034 N.ar     881 DG      0.0000
    841 C5        -3.9478     0.0299  2889.0864 C.ar     881 DG      0.0000
    842 C6        -2.5749    -0.2372  2888.8605 C.2      881 DG      0.0000
    843 O6        -1.6310     0.5532  2888.8818 O.2      881 DG      0.0000
    844 N1        -2.2741    -1.5417  2888.5790 N.am     881 DG      0.0000
    845 C2        -3.1688    -2.4755  2888.5183 C.2      881 DG      0.0000
    846 N2        -2.6279    -3.5929  2888.2216 N.pl3    881 DG      0.0000
    847 N3        -4.5420    -2.3125  2888.7271 N.2      881 DG      0.0000
    848 C4        -4.8291    -1.0315  2888.9997 C.ar     881 DG      0.0000
    849 H5'      -11.3029     0.1737  2887.9774 H        881 DG      0.0000
    850 H5''      -9.7858     0.6955  2887.2007 H        881 DG      0.0000
    851 H4'      -10.0682    -1.7224  2888.1702 H        881 DG      0.0000
    852 H3'      -10.1649    -0.3863  2890.6210 H        881 DG      0.0000
    853 H2'       -7.9206     0.0514  2890.8760 H        881 DG      0.0000
    854 H2''      -7.8579    -1.6764  2891.3405 H        881 DG      0.0000
    855 H1'       -7.1081    -2.3536  2889.2614 H        881 DG      0.0000
    856 H8        -6.6830     1.5115  2889.7262 H        881 DG      0.0000
    857 H1        -1.3091    -1.7877  2888.4106 H        881 DG      0.0000
    858 H21       -1.6298    -3.6482  2888.0772 H        881 DG      0.0000
    859 H22       -3.1980    -4.4216  2888.1311 H        881 DG      0.0000
    860 P         -9.9591    -3.1171  2891.8676 P.3      882 DT      0.0000
    861 OP1      -11.1689    -3.8553  2892.3793 O.co2    882 DT      0.0000
    862 OP2       -9.8332    -1.8881  2892.7863 O.co2    882 DT      0.0000
    863 O5'       -8.6283    -3.9115  2891.8962 O.3      882 DT      0.0000
    864 C5'       -8.5628    -5.3570  2891.7522 C.3      882 DT      0.0000
    865 C4'       -7.0842    -5.6797  2891.8097 C.3      882 DT      0.0000
    866 O4'       -6.2816    -4.5526  2891.5346 O.3      882 DT      0.0000
    867 C3'       -6.5637    -6.2081  2893.1224 C.3      882 DT      0.0000
    868 O3'       -6.1213    -7.5603  2892.9342 O.3      882 DT      0.0000
    869 C2'       -5.4079    -5.2881  2893.5147 C.3      882 DT      0.0000
    870 C1'       -4.9854    -4.7768  2892.1619 C.3      882 DT      0.0000
    871 N1        -4.3167    -3.4791  2892.2586 N.am     882 DT      0.0000
    872 C2        -2.9628    -3.4514  2892.0606 C.2      882 DT      0.0000
    873 O2        -2.3099    -4.4649  2891.8224 O.2      882 DT      0.0000
    874 N3        -2.3457    -2.2322  2892.1417 N.am     882 DT      0.0000
    875 C4        -3.0148    -1.0853  2892.3976 C.2      882 DT      0.0000
    876 O4        -2.3119    -0.0420  2892.4429 O.2      882 DT      0.0000
    877 C5        -4.4319    -1.1335  2892.5973 C.2      882 DT      0.0000
    878 C7        -5.2091     0.1116  2892.8772 C.3      882 DT      0.0000
    879 C6        -5.0272    -2.3303  2892.5158 C.2      882 DT      0.0000
    880 H5'       -9.0958    -5.8492  2892.5656 H        882 DT      0.0000
    881 H5''      -8.9781    -5.6599  2890.7910 H        882 DT      0.0000
    882 H4'       -6.8780    -6.4286  2891.0452 H        882 DT      0.0000
    883 H3'       -7.3470    -6.1710  2893.8795 H        882 DT      0.0000
    884 H2'       -5.7418    -4.4783  2894.1635 H        882 DT      0.0000
    885 H2''      -4.6034    -5.8544  2893.9839 H        882 DT      0.0000
    886 H1'       -4.3870    -5.5066  2891.6166 H        882 DT      0.0000
    887 H3        -1.3461    -2.1873  2892.0042 H        882 DT      0.0000
    888 H6        -6.0961    -2.3950  2892.6562 H        882 DT      0.0000
    889 H71       -5.7261     0.4291  2891.9717 H        882 DT      0.0000
    890 H72       -4.5289     0.8989  2893.2020 H        882 DT      0.0000
    891 H73       -5.9392    -0.0846  2893.6625 H        882 DT      0.0000
    892 P         -6.4307    -8.5153  2894.2142 P.3      883 DG      0.0000
    893 OP1       -6.7704    -9.8169  2893.4991 O.co2    883 DG      0.0000
    894 OP2       -7.5351    -7.9491  2894.9677 O.co2    883 DG      0.0000
    895 O5'       -4.9173    -8.4667  2894.8237 O.3      883 DG      0.0000
    896 C5'       -3.9436    -8.6809  2893.7331 C.3      883 DG      0.0000
    897 C4'       -2.5880    -8.3029  2894.2531 C.3      883 DG      0.0000
    898 O4'       -2.1976    -6.9679  2894.0726 O.3      883 DG      0.0000
    899 C3'       -2.4246    -8.6137  2895.7612 C.3      883 DG      0.0000
    900 O3'       -1.2457    -9.4396  2895.9200 O.3      883 DG      0.0000
    901 C2'       -2.3830    -7.2484  2896.4138 C.3      883 DG      0.0000
    902 C1'       -1.7149    -6.4075  2895.3322 C.3      883 DG      0.0000
    903 N9        -2.0164    -4.9817  2895.5017 N.ar     883 DG      0.0000
    904 C8        -3.2039    -4.3924  2895.8379 C.ar     883 DG      0.0000
    905 N7        -3.1601    -3.0811  2895.9237 N.ar     883 DG      0.0000
    906 C5        -1.8382    -2.7910  2895.5937 C.ar     883 DG      0.0000
    907 C6        -1.1536    -1.5456  2895.4993 C.2      883 DG      0.0000
    908 O6        -1.6049    -0.4068  2895.6916 O.2      883 DG      0.0000
    909 N1         0.1769    -1.6521  2895.1643 N.am     883 DG      0.0000
    910 C2         0.7694    -2.8574  2894.9405 C.2      883 DG      0.0000
    911 N2         2.0698    -2.7699  2894.6317 N.pl3    883 DG      0.0000
    912 N3         0.1730    -4.0453  2895.0115 N.2      883 DG      0.0000
    913 C4        -1.1268    -3.9436  2895.3381 C.ar     883 DG      0.0000
    914 H5'       -3.9472    -9.7286  2893.4326 H        883 DG      0.0000
    915 H5''      -4.2002    -8.0519  2892.8807 H        883 DG      0.0000
    916 H4'       -1.8623    -8.9193  2893.7226 H        883 DG      0.0000
    917 H3'       -3.2995    -9.1586  2896.1159 H        883 DG      0.0000
    918 H2'       -3.3859    -6.8843  2896.6367 H        883 DG      0.0000
    919 H2''      -1.7721    -7.2713  2897.3162 H        883 DG      0.0000
    920 H1'       -0.6358    -6.5495  2895.3911 H        883 DG      0.0000
    921 H8        -4.1056    -4.9588  2896.0186 H        883 DG      0.0000
    922 H1         0.7304    -0.8113  2895.0819 H        883 DG      0.0000
    923 H21        2.5172    -1.8658  2894.5815 H        883 DG      0.0000
    924 H22        2.6030    -3.6080  2894.4490 H        883 DG      0.0000
    925 P         -0.8457   -10.0362  2897.3085 P.3      884 DA      0.0000
    926 OP1       -1.4266   -11.3664  2897.6638 O.co2    884 DA      0.0000
    927 OP2       -1.5544    -8.9549  2898.2042 O.co2    884 DA      0.0000
    928 O5'        0.7001    -9.7847  2897.5576 O.3      884 DA      0.0000
    929 C5'        1.6754    -9.5620  2896.5285 C.3      884 DA      0.0000
    930 C4'        2.4940    -8.3722  2897.0029 C.3      884 DA      0.0000
    931 O4'        1.7348    -7.1857  2896.9125 O.3      884 DA      0.0000
    932 C3'        3.0318    -8.4476  2898.4319 C.3      884 DA      0.0000
    933 O3'        4.4270    -8.0844  2898.4842 O.3      884 DA      0.0000
    934 C2'        2.1258    -7.4525  2899.1673 C.3      884 DA      0.0000
    935 C1'        2.0138    -6.3847  2898.0898 C.3      884 DA      0.0000
    936 N9         0.9282    -5.4259  2898.3182 N.ar     884 DA      0.0000
    937 C8        -0.4033    -5.6420  2898.5339 C.ar     884 DA      0.0000
    938 N7        -1.1019    -4.5409  2898.6989 N.ar     884 DA      0.0000
    939 C5        -0.1647    -3.5283  2898.5587 C.ar     884 DA      0.0000
    940 C6        -0.2914    -2.1228  2898.6067 C.ar     884 DA      0.0000
    941 N6        -1.4381    -1.4752  2898.8264 N.pl3    884 DA      0.0000
    942 N1         0.8686    -1.4265  2898.4168 N.ar     884 DA      0.0000
    943 C2         2.0425    -2.0633  2898.1991 C.ar     884 DA      0.0000
    944 N3         2.2371    -3.3802  2898.1408 N.ar     884 DA      0.0000
    945 C4         1.0849    -4.0494  2898.3277 C.ar     884 DA      0.0000
    946 H5'        1.1859    -9.3353  2895.5813 H        884 DA      0.0000
    947 H5''       2.3144   -10.4385  2896.4207 H        884 DA      0.0000
    948 H4'        3.3479    -8.2702  2896.3331 H        884 DA      0.0000
    949 H3'        2.8903    -9.4510  2898.8333 H        884 DA      0.0000
    950 H2'        1.1570    -7.8874  2899.4128 H        884 DA      0.0000
    951 H2''       2.6164    -7.0604  2900.0582 H        884 DA      0.0000
    952 H1'        2.9632    -5.8614  2897.9752 H        884 DA      0.0000
    953 H8        -0.8422    -6.6283  2898.5660 H        884 DA      0.0000
    954 H2         2.9125    -1.4390  2898.0577 H        884 DA      0.0000
    955 H61       -2.3588    -1.8791  2898.7290 H        884 DA      0.0000
    956 H62       -1.4671    -0.4803  2898.6549 H        884 DA      0.0000
    957 P          5.4477    -8.6788  2899.6256 P.3      885 DA      0.0000
    958 OP1        6.5475    -9.4669  2898.9586 O.co2    885 DA      0.0000
    959 OP2        4.5167    -9.4691  2900.4565 O.co2    885 DA      0.0000
    960 O5'        6.1748    -7.3617  2900.1565 O.3      885 DA      0.0000
    961 C5'        6.9738    -6.5148  2899.3321 C.3      885 DA      0.0000
    962 C4'        6.8495    -5.0942  2899.8544 C.3      885 DA      0.0000
    963 O4'        5.5132    -4.6788  2899.8826 O.3      885 DA      0.0000
    964 C3'        7.4404    -4.7969  2901.2218 C.3      885 DA      0.0000
    965 O3'        8.5118    -3.8570  2901.1439 O.3      885 DA      0.0000
    966 C2'        6.2328    -4.3418  2902.0505 C.3      885 DA      0.0000
    967 C1'        5.2577    -3.8417  2901.0567 C.3      885 DA      0.0000
    968 N9         3.8104    -3.9239  2901.3247 N.ar     885 DA      0.0000
    969 C8         2.9943    -5.0230  2901.4399 C.ar     885 DA      0.0000
    970 N7         1.7257    -4.7343  2901.6092 N.ar     885 DA      0.0000
    971 C5         1.6944    -3.3440  2901.5722 C.ar     885 DA      0.0000
    972 C6         0.6203    -2.4167  2901.6927 C.ar     885 DA      0.0000
    973 N6        -0.6539    -2.7346  2901.8843 N.pl3    885 DA      0.0000
    974 N1         0.9667    -1.0923  2901.5945 N.ar     885 DA      0.0000
    975 C2         2.2678    -0.7265  2901.4054 C.ar     885 DA      0.0000
    976 N3         3.3145    -1.5368  2901.2976 N.ar     885 DA      0.0000
    977 C4         2.9589    -2.8340  2901.3894 C.ar     885 DA      0.0000
    978 H5'        6.6203    -6.5617  2898.3021 H        885 DA      0.0000
    979 H5''       8.0151    -6.8334  2899.3781 H        885 DA      0.0000
    980 H4'        7.3647    -4.4502  2899.1417 H        885 DA      0.0000
    981 H3'        7.8225    -5.7258  2901.6450 H        885 DA      0.0000
    982 H2'        5.8148    -5.1782  2902.6108 H        885 DA      0.0000
    983 H2''       6.5227    -3.5405  2902.7301 H        885 DA      0.0000
    984 H1'        5.5086    -2.8100  2900.8106 H        885 DA      0.0000
    985 H8         3.3647    -6.0365  2901.3951 H        885 DA      0.0000
    986 H2         2.4671     0.3327  2901.3362 H        885 DA      0.0000
    987 H61       -0.9385    -3.6471  2902.2105 H        885 DA      0.0000
    988 H62       -1.3632    -2.0402  2901.6975 H        885 DA      0.0000
    989 P          9.8270    -3.8416  2902.1001 P.3      886 DT      0.0000
    990 OP1       11.0949    -3.5573  2901.3028 O.co2    886 DT      0.0000
    991 OP2        9.8768    -5.0335  2902.9207 O.co2    886 DT      0.0000
    992 O5'        9.6260    -2.4265  2902.9139 O.3      886 DT      0.0000
    993 C5'        9.1186    -1.3902  2901.9688 C.3      886 DT      0.0000
    994 C4'        8.0681    -0.6493  2902.7565 C.3      886 DT      0.0000
    995 O4'        6.8806    -1.3847  2902.9485 O.3      886 DT      0.0000
    996 C3'        8.5509    -0.2866  2904.1731 C.3      886 DT      0.0000
    997 O3'        9.0062     1.0537  2904.1747 O.3      886 DT      0.0000
    998 C2'        7.3455    -0.5562  2905.0703 C.3      886 DT      0.0000
    999 C1'        6.2361    -0.6937  2904.1057 C.3      886 DT      0.0000
   1000 N1         5.0519    -1.4665  2904.4455 N.am     886 DT      0.0000
   1001 C2         3.8600    -0.7621  2904.5834 C.2      886 DT      0.0000
   1002 O2         3.8609     0.4590  2904.4954 O.2      886 DT      0.0000
   1003 N3         2.7216    -1.4658  2904.8374 N.am     886 DT      0.0000
   1004 C4         2.7066    -2.8260  2904.9575 C.2      886 DT      0.0000
   1005 O4         1.6049    -3.4092  2905.2127 O.2      886 DT      0.0000
   1006 C5         3.9426    -3.5323  2904.7859 C.2      886 DT      0.0000
   1007 C7         3.9772    -5.0329  2904.8735 C.3      886 DT      0.0000
   1008 C6         5.0620    -2.8335  2904.5302 C.2      886 DT      0.0000
   1009 H5'        9.9211    -0.7170  2901.6671 H        886 DT      0.0000
   1010 H5''       8.6721    -1.8625  2901.0937 H        886 DT      0.0000
   1011 H4'        7.8237     0.2718  2902.2273 H        886 DT      0.0000
   1012 H3'        9.3694    -0.9479  2904.4574 H        886 DT      0.0000
   1013 H2'        7.4816    -1.4731  2905.6437 H        886 DT      0.0000
   1014 H2''       7.1693     0.2882  2905.7367 H        886 DT      0.0000
   1015 H1'        5.9242     0.3013  2903.7884 H        886 DT      0.0000
   1016 H3         1.8531    -0.9609  2904.9411 H        886 DT      0.0000
   1017 H6         5.9925    -3.3631  2904.3880 H        886 DT      0.0000
   1018 H71        2.9762    -5.4081  2905.0865 H        886 DT      0.0000
   1019 H72        4.3249    -5.4439  2903.9257 H        886 DT      0.0000
   1020 H73        4.6558    -5.3348  2905.6713 H        886 DT      0.0000
   1021 P          9.7761     1.8234  2905.2814 P.3      887 DT      0.0000
   1022 OP1       10.5475     3.0211  2904.6693 O.co2    887 DT      0.0000
   1023 OP2       10.6942     0.8398  2905.9113 O.co2    887 DT      0.0000
   1024 O5'        8.6281     2.5129  2906.1637 O.3      887 DT      0.0000
   1025 C5'        7.9502     3.5828  2905.4519 C.3      887 DT      0.0000
   1026 C4'        6.6523     3.8587  2906.1281 C.3      887 DT      0.0000
   1027 O4'        5.7478     2.7615  2906.1047 O.3      887 DT      0.0000
   1028 C3'        6.7813     4.2946  2907.5947 C.3      887 DT      0.0000
   1029 O3'        5.9170     5.3835  2907.8587 O.3      887 DT      0.0000
   1030 C2'        6.2731     3.0323  2908.3310 C.3      887 DT      0.0000
   1031 C1'        5.0933     2.7368  2907.4275 C.3      887 DT      0.0000
   1032 N1         4.5197     1.4374  2907.7252 N.am     887 DT      0.0000
   1033 C2         3.1403     1.3208  2907.7800 C.2      887 DT      0.0000
   1034 O2         2.4493     2.3231  2907.5916 O.2      887 DT      0.0000
   1035 N3         2.6057     0.0917  2908.0459 N.am     887 DT      0.0000
   1036 C4         3.3813    -1.0076  2908.2529 C.2      887 DT      0.0000
   1037 O4         2.8152    -2.1158  2908.4762 O.2      887 DT      0.0000
   1038 C5         4.7991    -0.8767  2908.1878 C.2      887 DT      0.0000
   1039 C7         5.7211    -2.0423  2908.3978 C.3      887 DT      0.0000
   1040 C6         5.3073     0.3378  2907.9267 C.2      887 DT      0.0000
   1041 H5'        8.5683     4.4806  2905.4643 H        887 DT      0.0000
   1042 H5''       7.7682     3.2784  2904.4212 H        887 DT      0.0000
   1043 H4'        6.1771     4.6787  2905.5896 H        887 DT      0.0000
   1044 H3'        7.8135     4.5264  2907.8571 H        887 DT      0.0000
   1045 H2'        7.0080     2.2274  2908.3298 H        887 DT      0.0000
   1046 H2''       5.9468     3.2690  2909.3437 H        887 DT      0.0000
   1047 H1'        4.3398     3.5209  2907.5031 H        887 DT      0.0000
   1048 H3         1.6012    -0.0044  2908.0903 H        887 DT      0.0000
   1049 H6         6.3800     0.4510  2907.8736 H        887 DT      0.0000
   1050 H71        5.1343    -2.9391  2908.5967 H        887 DT      0.0000
   1051 H72        6.3240    -2.1941  2907.5025 H        887 DT      0.0000
   1052 H73        6.3748    -1.8403  2909.2462 H        887 DT      0.0000
   1053 P          6.0590     6.8233  2908.4667 P.3      888 DC      0.0000
   1054 OP1        5.9201     7.8912  2907.3988 O.co2    888 DC      0.0000
   1055 OP2        7.3370     6.8119  2909.2017 O.co2    888 DC      0.0000
   1056 O5'        4.6528     6.8111  2909.2927 O.3      888 DC      0.0000
   1057 C5'        3.6556     6.4422  2908.2704 C.3      888 DC      0.0000
   1058 C4'        2.3288     6.3368  2908.9670 C.3      888 DC      0.0000
   1059 O4'        1.9555     5.0166  2909.2139 O.3      888 DC      0.0000
   1060 C3'        2.2104     7.1382  2910.2584 C.3      888 DC      0.0000
   1061 O3'        1.1166     8.0427  2910.1787 O.3      888 DC      0.0000
   1062 C2'        2.1551     6.0253  2911.3072 C.3      888 DC      0.0000
   1063 C1'        1.5287     4.8828  2910.6108 C.3      888 DC      0.0000
   1064 N1         2.0263     3.5441  2910.9429 N.am     888 DC      0.0000
   1065 C2         1.0539     2.5797  2911.1987 C.2      888 DC      0.0000
   1066 O2        -0.1478     2.8640  2911.2032 O.2      888 DC      0.0000
   1067 N3         1.4840     1.3049  2911.4725 N.2      888 DC      0.0000
   1068 C4         2.8093     0.9828  2911.4626 C.2      888 DC      0.0000
   1069 N4         3.1254    -0.2774  2911.7394 N.pl3    888 DC      0.0000
   1070 C5         3.7830     1.9674  2911.1846 C.2      888 DC      0.0000
   1071 C6         3.3446     3.2153  2910.9198 C.2      888 DC      0.0000
   1072 H5'        3.6120     7.2088  2907.4968 H        888 DC      0.0000
   1073 H5''       3.9182     5.4821  2907.8262 H        888 DC      0.0000
   1074 H4'        1.5865     6.7448  2908.2810 H        888 DC      0.0000
   1075 H3'        3.1276     7.7095  2910.4017 H        888 DC      0.0000
   1076 H2'        3.1584     5.7659  2911.6451 H        888 DC      0.0000
   1077 H2''       1.5406     6.3343  2912.1527 H        888 DC      0.0000
   1078 H1'        0.4426     4.9255  2910.6917 H        888 DC      0.0000
   1079 H5         4.8367     1.7306  2911.1840 H        888 DC      0.0000
   1080 H6         4.0677     3.9810  2910.6808 H        888 DC      0.0000
   1081 H41        2.3975    -0.9486  2911.9387 H        888 DC      0.0000
   1082 H42        4.0938    -0.5643  2911.7508 H        888 DC      0.0000
   1083 P          0.8644     9.3324  2911.1308 P.3      889 DA      0.0000
   1084 OP1        0.0203    10.3110  2910.3370 O.co2    889 DA      0.0000
   1085 OP2        2.1822     9.9032  2911.4763 O.co2    889 DA      0.0000
   1086 O5'        0.0601     8.7168  2912.4278 O.3      889 DA      0.0000
   1087 C5'       -1.1326     7.9272  2912.1326 C.3      889 DA      0.0000
   1088 C4'       -1.7009     7.3510  2913.3878 C.3      889 DA      0.0000
   1089 O4'       -1.3713     5.9799  2913.6300 O.3      889 DA      0.0000
   1090 C3'       -1.2506     8.0282  2914.6931 C.3      889 DA      0.0000
   1091 O3'       -2.1855     7.6988  2915.7230 O.3      889 DA      0.0000
   1092 C2'        0.0867     7.2915  2914.9077 C.3      889 DA      0.0000
   1093 C1'       -0.4640     5.8733  2914.7244 C.3      889 DA      0.0000
   1094 N9         0.6442     4.9381  2914.6301 N.ar     889 DA      0.0000
   1095 C8         1.9886     5.1591  2914.5142 C.ar     889 DA      0.0000
   1096 N7         2.7338     4.0685  2914.4956 N.ar     889 DA      0.0000
   1097 C5         1.8011     3.0466  2914.6032 C.ar     889 DA      0.0000
   1098 C6         1.9376     1.6369  2914.6377 C.ar     889 DA      0.0000
   1099 N6         3.0881     0.9934  2914.5524 N.pl3    889 DA      0.0000
   1100 N1         0.7807     0.9238  2914.7703 N.ar     889 DA      0.0000
   1101 C2        -0.4345     1.5502  2914.8505 C.ar     889 DA      0.0000
   1102 N3        -0.6427     2.8644  2914.8206 N.ar     889 DA      0.0000
   1103 C4         0.5164     3.5564  2914.6976 C.ar     889 DA      0.0000
   1104 H5'       -1.8789     8.5668  2911.6614 H        889 DA      0.0000
   1105 H5''      -0.8697     7.1179  2911.4513 H        889 DA      0.0000
   1106 H4'       -2.7866     7.4280  2913.3289 H        889 DA      0.0000
   1107 H3'       -1.1191     9.1042  2914.5794 H        889 DA      0.0000
   1108 H2'        0.8330     7.5512  2914.1569 H        889 DA      0.0000
   1109 H2''       0.4677     7.4435  2915.9176 H        889 DA      0.0000
   1110 H1'       -1.0407     5.6204  2915.6140 H        889 DA      0.0000
   1111 H8         2.4098     6.1511  2914.4433 H        889 DA      0.0000
   1112 H2        -1.3053     0.9186  2914.9469 H        889 DA      0.0000
   1113 H61        3.3774     0.0426  2914.7325 H        889 DA      0.0000
   1114 H62        3.8458     1.5823  2914.2377 H        889 DA      0.0000
   1115 P         -3.5787     8.4732  2915.8635 P.3      890 DC      0.0000
   1116 OP1       -3.9831     9.1854  2914.6184 O.co2    890 DC      0.0000
   1117 OP2       -3.3080     9.4084  2917.0064 O.co2    890 DC      0.0000
   1118 O5'       -4.6163     7.3079  2916.1466 O.3      890 DC      0.0000
   1119 C5'       -5.1754     6.5110  2915.0589 C.3      890 DC      0.0000
   1120 C4'       -5.4479     5.1774  2915.7639 C.3      890 DC      0.0000
   1121 O4'       -4.1994     4.6043  2916.0759 O.3      890 DC      0.0000
   1122 C3'       -6.2186     5.3197  2917.0738 C.3      890 DC      0.0000
   1123 O3'       -7.3770     4.4576  2917.1417 O.3      890 DC      0.0000
   1124 C2'       -5.1714     5.0163  2918.1560 C.3      890 DC      0.0000
   1125 C1'       -4.2826     4.0529  2917.4798 C.3      890 DC      0.0000
   1126 N1        -2.8696     3.9413  2917.8326 N.am     890 DC      0.0000
   1127 C2        -2.3530     2.6473  2917.8057 C.2      890 DC      0.0000
   1128 O2        -3.0491     1.6613  2917.5988 O.2      890 DC      0.0000
   1129 N3        -1.0249     2.4994  2918.0589 N.2      890 DC      0.0000
   1130 C4        -0.2066     3.5539  2918.2922 C.2      890 DC      0.0000
   1131 N4         1.0764     3.2819  2918.5231 N.pl3    890 DC      0.0000
   1132 C5        -0.7432     4.8708  2918.2988 C.2      890 DC      0.0000
   1133 C6        -2.0545     5.0090  2918.0493 C.2      890 DC      0.0000
   1134 H5'       -6.0946     6.9526  2914.6741 H        890 DC      0.0000
   1135 H5''      -4.4451     6.3827  2914.2599 H        890 DC      0.0000
   1136 H4'       -5.9935     4.5157  2915.0912 H        890 DC      0.0000
   1137 H3'       -6.5439     6.3546  2917.1797 H        890 DC      0.0000
   1138 H2'       -4.6295     5.9175  2918.4430 H        890 DC      0.0000
   1139 H2''      -5.6414     4.5584  2919.0262 H        890 DC      0.0000
   1140 H1'       -4.7435     3.0652  2917.4665 H        890 DC      0.0000
   1141 H5        -0.1179     5.7287  2918.4973 H        890 DC      0.0000
   1142 H6        -2.4776     6.0023  2918.0196 H        890 DC      0.0000
   1143 H41        1.3997     2.3251  2918.5121 H        890 DC      0.0000
   1144 H42        1.7261     4.0324  2918.7093 H        890 DC      0.0000
   1145 P          6.4707    -5.4933  2920.1012 P.3      890 DG      0.0000
   1146 OP1        7.6448    -6.4024  2920.2800 O.co2    890 DG      0.0000
   1147 OP2        6.6866    -4.4464  2919.0164 O.co2    890 DG      0.0000
   1148 O5'        5.1092    -6.3948  2919.8940 O.3      890 DG      0.0000
   1149 C5'        4.1392    -6.4857  2920.9897 C.3      890 DG      0.0000
   1150 C4'        2.7503    -6.4759  2920.3554 C.3      890 DG      0.0000
   1151 O4'        2.2259    -5.1797  2920.2596 O.3      890 DG      0.0000
   1152 C3'        2.6939    -7.0666  2918.9491 C.3      890 DG      0.0000
   1153 O3'        1.5156    -7.8618  2918.6821 O.3      890 DG      0.0000
   1154 C2'        2.7498    -5.8206  2918.0468 C.3      890 DG      0.0000
   1155 C1'        1.9362    -4.8364  2918.8706 C.3      890 DG      0.0000
   1156 N9         2.3476    -3.4488  2918.5973 N.ar     890 DG      0.0000
   1157 C8         3.6231    -2.9608  2918.4407 C.ar     890 DG      0.0000
   1158 N7         3.6760    -1.6737  2918.2223 N.ar     890 DG      0.0000
   1159 C5         2.3431    -1.2804  2918.2471 C.ar     890 DG      0.0000
   1160 C6         1.7390    -0.0044  2918.0906 C.2      890 DG      0.0000
   1161 O6         2.3219     1.0713  2917.8938 O.2      890 DG      0.0000
   1162 N1         0.3686    -0.0135  2918.1775 N.am     890 DG      0.0000
   1163 C2        -0.3434    -1.1457  2918.3982 C.2      890 DG      0.0000
   1164 N2        -1.6640    -1.0001  2918.4615 N.pl3    890 DG      0.0000
   1165 N3         0.1753    -2.3697  2918.5559 N.2      890 DG      0.0000
   1166 C4         1.5198    -2.3601  2918.4726 C.ar     890 DG      0.0000
   1167 H5'        4.2898    -7.4100  2921.5475 H        890 DG      0.0000
   1168 H5''       4.2494    -5.6291  2921.6547 H        890 DG      0.0000
   1169 H4'        2.0863    -7.0605  2920.9922 H        890 DG      0.0000
   1170 H3'        3.5830    -7.6737  2918.7786 H        890 DG      0.0000
   1171 H2'        3.7734    -5.4744  2917.9041 H        890 DG      0.0000
   1172 H2''       2.2689    -6.0144  2917.0881 H        890 DG      0.0000
   1173 H1'        0.8730    -4.9616  2918.6654 H        890 DG      0.0000
   1174 H8         4.5027    -3.5852  2918.4934 H        890 DG      0.0000
   1175 H1        -0.1291     0.8590  2918.0727 H        890 DG      0.0000
   1176 H21       -2.0773    -0.0857  2918.3465 H        890 DG      0.0000
   1177 H22       -2.2535    -1.8038  2918.6247 H        890 DG      0.0000
   1178 P          1.0188    -7.8755  2917.1586 P.3      889 DT      0.0000
   1179 OP1        0.2955    -9.1361  2916.7677 O.co2    889 DT      0.0000
   1180 OP2        2.3218    -7.7643  2916.4581 O.co2    889 DT      0.0000
   1181 O5'        0.0376    -6.6156  2917.0277 O.3      889 DT      0.0000
   1182 C5'       -1.3813    -6.8544  2917.2954 C.3      889 DT      0.0000
   1183 C4'       -2.1908    -5.8241  2916.5383 C.3      889 DT      0.0000
   1184 O4'       -1.5744    -4.5491  2916.5110 O.3      889 DT      0.0000
   1185 C3'       -2.4247    -6.2012  2915.0836 C.3      889 DT      0.0000
   1186 O3'       -3.7352    -5.8507  2914.5885 O.3      889 DT      0.0000
   1187 C2'       -1.3295    -5.4487  2914.3608 C.3      889 DT      0.0000
   1188 C1'       -1.3703    -4.1439  2915.1389 C.3      889 DT      0.0000
   1189 N1        -0.0469    -3.5189  2914.9876 N.am     889 DT      0.0000
   1190 C2        -0.0062    -2.1325  2915.0943 C.2      889 DT      0.0000
   1191 O2        -1.0354    -1.4932  2915.2841 O.2      889 DT      0.0000
   1192 N3         1.2162    -1.5329  2914.9742 N.am     889 DT      0.0000
   1193 C4         2.3535    -2.2515  2914.7566 C.2      889 DT      0.0000
   1194 O4         3.4477    -1.6035  2914.6590 O.2      889 DT      0.0000
   1195 C5         2.2801    -3.6698  2914.6502 C.2      889 DT      0.0000
   1196 C7         3.5285    -4.4727  2914.4213 C.3      889 DT      0.0000
   1197 C6         1.0835    -4.2501  2914.7720 C.2      889 DT      0.0000
   1198 H5'       -1.6552    -7.8552  2916.9616 H        889 DT      0.0000
   1199 H5''      -1.5739    -6.7589  2918.3640 H        889 DT      0.0000
   1200 H4'       -3.1604    -5.7250  2917.0263 H        889 DT      0.0000
   1201 H3'       -2.2676    -7.2726  2914.9596 H        889 DT      0.0000
   1202 H2'       -0.3645    -5.9472  2914.4523 H        889 DT      0.0000
   1203 H2''      -1.5896    -5.2886  2913.3144 H        889 DT      0.0000
   1204 H1'       -2.1684    -3.4895  2914.7882 H        889 DT      0.0000
   1205 H3         1.2786    -0.5276  2915.0488 H        889 DT      0.0000
   1206 H6         1.0094    -5.3250  2914.6978 H        889 DT      0.0000
   1207 H71        4.3850    -3.8021  2914.3526 H        889 DT      0.0000
   1208 H72        3.6736    -5.1631  2915.2521 H        889 DT      0.0000
   1209 H73        3.4329    -5.0363  2913.4931 H        889 DT      0.0000
   1210 P         -4.3368    -7.1875  2913.8101 P.3      888 DG      0.0000
   1211 OP1       -5.1947    -8.0460  2914.6814 O.co2    888 DG      0.0000
   1212 OP2       -3.0485    -7.8029  2913.4046 O.co2    888 DG      0.0000
   1213 O5'       -5.2867    -6.4916  2912.7293 O.3      888 DG      0.0000
   1214 C5'       -6.5821    -5.9959  2913.1528 C.3      888 DG      0.0000
   1215 C4'       -6.6071    -4.5399  2912.7050 C.3      888 DG      0.0000
   1216 O4'       -5.3569    -3.9381  2912.9757 O.3      888 DG      0.0000
   1217 C3'       -6.8981    -4.3427  2911.2173 C.3      888 DG      0.0000
   1218 O3'       -8.0167    -3.4992  2911.0088 O.3      888 DG      0.0000
   1219 C2'       -5.5856    -3.8427  2910.6406 C.3      888 DG      0.0000
   1220 C1'       -4.9340    -3.1718  2911.8267 C.3      888 DG      0.0000
   1221 N9        -3.4740    -3.1924  2911.7032 N.ar     888 DG      0.0000
   1222 C8        -2.6514    -4.2715  2911.5443 C.ar     888 DG      0.0000
   1223 N7        -1.3808    -3.9594  2911.4663 N.ar     888 DG      0.0000
   1224 C5        -1.3637    -2.5745  2911.6038 C.ar     888 DG      0.0000
   1225 C6        -0.2976    -1.6368  2911.6132 C.2      888 DG      0.0000
   1226 O6         0.9013    -1.8773  2911.5142 O.2      888 DG      0.0000
   1227 N1        -0.6864    -0.3358  2911.7622 N.am     888 DG      0.0000
   1228 C2        -2.0065     0.0212  2911.8951 C.2      888 DG      0.0000
   1229 N2        -2.2462     1.3257  2912.0307 N.pl3    888 DG      0.0000
   1230 N3        -3.0548    -0.8084  2911.8994 N.2      888 DG      0.0000
   1231 C4        -2.6541    -2.0938  2911.7487 C.ar     888 DG      0.0000
   1232 H5'       -7.3836    -6.5585  2912.6740 H        888 DG      0.0000
   1233 H5''      -6.6734    -6.0584  2914.2371 H        888 DG      0.0000
   1234 H4'       -7.3724    -4.0165  2913.2780 H        888 DG      0.0000
   1235 H3'       -7.1165    -5.3163  2910.7787 H        888 DG      0.0000
   1236 H2'       -4.9773    -4.6697  2910.2742 H        888 DG      0.0000
   1237 H2''      -5.7679    -3.1202  2909.8450 H        888 DG      0.0000
   1238 H1'       -5.2865    -2.1441  2911.9138 H        888 DG      0.0000
   1239 H8        -3.0143    -5.2872  2911.4882 H        888 DG      0.0000
   1240 H1         0.0191     0.3868  2911.7751 H        888 DG      0.0000
   1241 H21       -1.4791     1.9828  2912.0317 H        888 DG      0.0000
   1242 H22       -3.1948     1.6569  2912.1325 H        888 DG      0.0000
   1243 P         -8.2981    -2.2079  2910.1425 P.3      887 DA      0.0000
   1244 OP1       -9.1859    -1.2310  2910.9239 O.co2    887 DA      0.0000
   1245 OP2       -8.9969    -2.6922  2908.9498 O.co2    887 DA      0.0000
   1246 O5'       -6.8636    -1.4558  2909.9677 O.3      887 DA      0.0000
   1247 C5'       -6.5597    -0.5889  2911.1242 C.3      887 DA      0.0000
   1248 C4'       -6.4856     0.8225  2910.5963 C.3      887 DA      0.0000
   1249 O4'       -5.1640     1.2446  2910.3741 O.3      887 DA      0.0000
   1250 C3'       -7.1987     0.9955  2909.2559 C.3      887 DA      0.0000
   1251 O3'       -7.9238     2.1996  2909.1807 O.3      887 DA      0.0000
   1252 C2'       -6.0727     0.7861  2908.2593 C.3      887 DA      0.0000
   1253 C1'       -4.7968     1.1143  2908.9831 C.3      887 DA      0.0000
   1254 N9        -3.7643     0.0884  2908.7576 N.ar     887 DA      0.0000
   1255 C8        -3.9176    -1.2684  2908.5713 C.ar     887 DA      0.0000
   1256 N7        -2.7936    -1.9185  2908.3754 N.ar     887 DA      0.0000
   1257 C5        -1.8303    -0.9213  2908.4622 C.ar     887 DA      0.0000
   1258 C6        -0.4206    -0.9703  2908.3566 C.ar     887 DA      0.0000
   1259 N6         0.2628    -2.0811  2908.1441 N.pl3    887 DA      0.0000
   1260 N1         0.2307     0.2191  2908.4803 N.ar     887 DA      0.0000
   1261 C2        -0.4493     1.3821  2908.7048 C.ar     887 DA      0.0000
   1262 N3        -1.7708     1.4960  2908.8207 N.ar     887 DA      0.0000
   1263 C4        -2.4071     0.3074  2908.6846 C.ar     887 DA      0.0000
   1264 H5'       -7.3484    -0.6697  2911.8722 H        887 DA      0.0000
   1265 H5''      -5.6024    -0.8733  2911.5608 H        887 DA      0.0000
   1266 H4'       -6.9464     1.4906  2911.3240 H        887 DA      0.0000
   1267 H3'       -7.9038     0.1720  2909.1427 H        887 DA      0.0000
   1268 H2'       -6.2004     1.4475  2907.4024 H        887 DA      0.0000
   1269 H2''      -6.0566    -0.2525  2907.9287 H        887 DA      0.0000
   1270 H1'       -4.4248     2.0741  2908.6249 H        887 DA      0.0000
   1271 H8        -4.8812    -1.7561  2908.5852 H        887 DA      0.0000
   1272 H2         0.1344     2.2861  2908.7961 H        887 DA      0.0000
   1273 H61        1.2177    -2.1755  2908.4595 H        887 DA      0.0000
   1274 H62       -0.1773    -2.8492  2907.6579 H        887 DA      0.0000
   1275 P         -8.1284     3.2251  2907.9961 P.3      886 DA      0.0000
   1276 OP1       -8.7959     4.5317  2908.5160 O.co2    886 DA      0.0000
   1277 OP2       -9.0723     2.5353  2907.0624 O.co2    886 DA      0.0000
   1278 O5'       -6.6986     3.6550  2907.4934 O.3      886 DA      0.0000
   1279 C5'       -6.1168     4.8939  2907.9492 C.3      886 DA      0.0000
   1280 C4'       -4.7843     5.0408  2907.2473 C.3      886 DA      0.0000
   1281 O4'       -4.0628     3.8481  2907.1265 O.3      886 DA      0.0000
   1282 C3'       -4.8983     5.6245  2905.8398 C.3      886 DA      0.0000
   1283 O3'       -4.2781     6.9239  2905.8083 O.3      886 DA      0.0000
   1284 C2'       -4.3299     4.5255  2904.9402 C.3      886 DA      0.0000
   1285 C1'       -3.3647     3.8125  2905.8380 C.3      886 DA      0.0000
   1286 N9        -3.1139     2.4066  2905.5384 N.ar     886 DA      0.0000
   1287 C8        -4.0157     1.3809  2905.3436 C.ar     886 DA      0.0000
   1288 N7        -3.4523     0.2113  2905.1382 N.ar     886 DA      0.0000
   1289 C5        -2.0977     0.4710  2905.2127 C.ar     886 DA      0.0000
   1290 C6        -0.9677    -0.3666  2905.0793 C.ar     886 DA      0.0000
   1291 N6        -1.0381    -1.6719  2904.8361 N.pl3    886 DA      0.0000
   1292 N1         0.2441     0.2590  2905.2281 N.ar     886 DA      0.0000
   1293 C2         0.3464     1.5781  2905.4806 C.ar     886 DA      0.0000
   1294 N3        -0.6744     2.4294  2905.6195 N.ar     886 DA      0.0000
   1295 C4        -1.8668     1.8102  2905.4723 C.ar     886 DA      0.0000
   1296 H5'       -6.7683     5.7296  2907.6941 H        886 DA      0.0000
   1297 H5''      -5.9655     4.8577  2909.0280 H        886 DA      0.0000
   1298 H4'       -4.1794     5.7291  2907.8374 H        886 DA      0.0000
   1299 H3'       -5.9557     5.7452  2905.6048 H        886 DA      0.0000
   1300 H2'       -5.1173     3.8527  2904.6003 H        886 DA      0.0000
   1301 H2''      -3.8075     4.9619  2904.0889 H        886 DA      0.0000
   1302 H1'       -2.4251     4.3618  2905.8991 H        886 DA      0.0000
   1303 H8        -5.0858     1.5256  2905.3586 H        886 DA      0.0000
   1304 H2         1.3423     1.9840  2905.5797 H        886 DA      0.0000
   1305 H61       -0.2352    -2.2095  2905.1301 H        886 DA      0.0000
   1306 H62       -1.8382    -2.0960  2904.3888 H        886 DA      0.0000
   1307 P         -4.2566     7.7445  2904.4233 P.3      885 DT      0.0000
   1308 OP1       -3.9011     9.1983  2904.4815 O.co2    885 DT      0.0000
   1309 OP2       -5.6274     7.4400  2903.9107 O.co2    885 DT      0.0000
   1310 O5'       -2.9569     6.9737  2903.7202 O.3      885 DT      0.0000
   1311 C5'       -1.9252     6.7696  2904.7325 C.3      885 DT      0.0000
   1312 C4'       -0.6060     6.5993  2904.0496 C.3      885 DT      0.0000
   1313 O4'       -0.2390     5.2642  2903.8692 O.3      885 DT      0.0000
   1314 C3'       -0.5184     7.2719  2902.6883 C.3      885 DT      0.0000
   1315 O3'        0.7708     7.8372  2902.4210 O.3      885 DT      0.0000
   1316 C2'       -0.9093     6.0874  2901.7950 C.3      885 DT      0.0000
   1317 C1'       -0.1378     4.9531  2902.4350 C.3      885 DT      0.0000
   1318 N1        -0.8030     3.6568  2902.2050 N.am     885 DT      0.0000
   1319 C2         0.0022     2.5380  2902.0834 C.2      885 DT      0.0000
   1320 O2         1.2302     2.6300  2902.1202 O.2      885 DT      0.0000
   1321 N3        -0.6067     1.3239  2901.9160 N.am     885 DT      0.0000
   1322 C4        -1.9601     1.1986  2901.8675 C.2      885 DT      0.0000
   1323 O4        -2.4369     0.0393  2901.6820 O.2      885 DT      0.0000
   1324 C5        -2.7704     2.3589  2902.0159 C.2      885 DT      0.0000
   1325 C7        -4.2763     2.2581  2901.9638 C.3      885 DT      0.0000
   1326 C6        -2.1607     3.5364  2902.1889 C.2      885 DT      0.0000
   1327 H5'       -1.8858     7.6346  2905.3946 H        885 DT      0.0000
   1328 H5''      -2.1545     5.8756  2905.3126 H        885 DT      0.0000
   1329 H4'        0.1496     7.0591  2904.6866 H        885 DT      0.0000
   1330 H3'       -1.2791     8.0492  2902.6163 H        885 DT      0.0000
   1331 H2'       -1.9834     5.9042  2901.8256 H        885 DT      0.0000
   1332 H2''      -0.5753     6.2507  2900.7704 H        885 DT      0.0000
   1333 H1'        0.8997     4.9358  2902.1010 H        885 DT      0.0000
   1334 H3        -0.0342     0.4967  2901.8259 H        885 DT      0.0000
   1335 H6        -2.7645     4.4221  2902.3203 H        885 DT      0.0000
   1336 H71       -4.6225     2.4986  2900.9586 H        885 DT      0.0000
   1337 H72       -4.7120     2.9596  2902.6753 H        885 DT      0.0000
   1338 H73       -4.5816     1.2437  2902.2203 H        885 DT      0.0000
   1339 P          0.9649     8.4828  2900.9311 P.3      884 DT      0.0000
   1340 OP1        1.1553     9.9936  2901.0791 O.co2    884 DT      0.0000
   1341 OP2       -0.3497     8.2023  2900.2613 O.co2    884 DT      0.0000
   1342 O5'        2.1930     7.7980  2900.2791 O.3      884 DT      0.0000
   1343 C5'        3.2983     7.2960  2901.0305 C.3      884 DT      0.0000
   1344 C4'        3.8889     6.1441  2900.2825 C.3      884 DT      0.0000
   1345 O4'        3.1671     4.9434  2900.2255 O.3      884 DT      0.0000
   1346 C3'        4.3085     6.3866  2898.8164 C.3      884 DT      0.0000
   1347 O3'        5.4662     5.5522  2898.7127 O.3      884 DT      0.0000
   1348 C2'        3.1104     5.8073  2898.0527 C.3      884 DT      0.0000
   1349 C1'        3.0044     4.5103  2898.8284 C.3      884 DT      0.0000
   1350 N1         1.7244     3.8042  2898.7222 N.am     884 DT      0.0000
   1351 C2         1.8083     2.4054  2898.7216 C.2      884 DT      0.0000
   1352 O2         2.8996     1.8334  2898.7647 O.2      884 DT      0.0000
   1353 N3         0.6330     1.7128  2898.6682 N.am     884 DT      0.0000
   1354 C4        -0.5830     2.3263  2898.6084 C.2      884 DT      0.0000
   1355 O4        -1.6166     1.5948  2898.5460 O.2      884 DT      0.0000
   1356 C5        -0.6392     3.7467  2898.6167 C.2      884 DT      0.0000
   1357 C7        -1.9835     4.4415  2898.5552 C.3      884 DT      0.0000
   1358 C6         0.5130     4.4201  2898.6831 C.2      884 DT      0.0000
   1359 H5'        4.0469     8.0788  2901.1527 H        884 DT      0.0000
   1360 H5''       2.9547     6.9608  2902.0090 H        884 DT      0.0000
   1361 H4'        4.8114     5.9008  2900.8097 H        884 DT      0.0000
   1362 H3'        4.5051     7.4340  2898.5877 H        884 DT      0.0000
   1363 H2'        3.3283     5.6448  2896.9971 H        884 DT      0.0000
   1364 H2''       2.2204     6.4226  2898.1843 H        884 DT      0.0000
   1365 H1'        3.8202     3.8434  2898.5494 H        884 DT      0.0000
   1366 H3         0.6657     0.7034  2898.6730 H        884 DT      0.0000
   1367 H6         0.4806     5.4993  2898.7068 H        884 DT      0.0000
   1368 H71       -2.7767     3.6955  2898.5064 H        884 DT      0.0000
   1369 H72       -2.0250     5.0742  2897.6686 H        884 DT      0.0000
   1370 H73       -2.1163     5.0552  2899.4462 H        884 DT      0.0000
   1371 P          6.5134     5.5511  2897.5664 P.3      883 DC      0.0000
   1372 OP1        7.9159     5.5990  2898.1756 O.co2    883 DC      0.0000
   1373 OP2        6.2620     6.8021  2896.7846 O.co2    883 DC      0.0000
   1374 O5'        6.1682     4.1410  2896.8270 O.3      883 DC      0.0000
   1375 C5'        6.5987     2.9422  2897.5516 C.3      883 DC      0.0000
   1376 C4'        6.9848     1.9336  2896.5010 C.3      883 DC      0.0000
   1377 O4'        5.9593     0.9995  2896.2557 O.3      883 DC      0.0000
   1378 C3'        7.3505     2.5204  2895.1366 C.3      883 DC      0.0000
   1379 O3'        8.3586     1.7969  2894.4273 O.3      883 DC      0.0000
   1380 C2'        5.9775     2.5228  2894.4505 C.3      883 DC      0.0000
   1381 C1'        5.3343     1.2497  2894.9971 C.3      883 DC      0.0000
   1382 N1         3.8767     1.4891  2895.1149 N.am     883 DC      0.0000
   1383 C2         3.0497     0.3668  2895.1321 C.2      883 DC      0.0000
   1384 O2         3.5206    -0.7768  2895.0634 O.2      883 DC      0.0000
   1385 N3         1.7021     0.5833  2895.2353 N.2      883 DC      0.0000
   1386 C4         1.1747     1.8335  2895.3061 C.2      883 DC      0.0000
   1387 N4        -0.1466     1.9932  2895.4080 N.pl3    883 DC      0.0000
   1388 C5         2.0412     2.9618  2895.2810 C.2      883 DC      0.0000
   1389 C6         3.3648     2.7482  2895.1874 C.2      883 DC      0.0000
   1390 H5'        7.4537     3.1717  2898.1875 H        883 DC      0.0000
   1391 H5''       5.7774     2.5562  2898.1554 H        883 DC      0.0000
   1392 H4'        7.8518     1.3856  2896.8698 H        883 DC      0.0000
   1393 H3'        7.6814     3.5501  2895.2708 H        883 DC      0.0000
   1394 H2'        6.0788     2.4788  2893.3661 H        883 DC      0.0000
   1395 H2''       5.4025     3.4003  2894.7464 H        883 DC      0.0000
   1396 H1'        5.5207     0.4180  2894.3177 H        883 DC      0.0000
   1397 H5         1.6450     3.9650  2895.3357 H        883 DC      0.0000
   1398 H6         4.0366     3.5937  2895.1693 H        883 DC      0.0000
   1399 H41       -0.7528     1.1856  2895.4287 H        883 DC      0.0000
   1400 H42       -0.5402     2.9217  2895.4644 H        883 DC      0.0000
   1401 P          8.4163     1.5703  2892.7953 P.3      882 DA      0.0000
   1402 OP1        9.8508     1.2856  2892.4058 O.co2    882 DA      0.0000
   1403 OP2        7.8512     2.8234  2892.2252 O.co2    882 DA      0.0000
   1404 O5'        7.5789     0.2213  2892.6298 O.3      882 DA      0.0000
   1405 C5'        8.1996    -1.0397  2893.0952 C.3      882 DA      0.0000
   1406 C4'        7.5066    -2.0684  2892.2179 C.3      882 DA      0.0000
   1407 O4'        6.0985    -2.0628  2892.4853 O.3      882 DA      0.0000
   1408 C3'        7.6171    -1.7629  2890.7135 C.3      882 DA      0.0000
   1409 O3'        7.3044    -2.8996  2889.9245 O.3      882 DA      0.0000
   1410 C2'        6.4303    -0.7999  2890.5261 C.3      882 DA      0.0000
   1411 C1'        5.4117    -1.6974  2891.2807 C.3      882 DA      0.0000
   1412 N9         4.2252    -0.8603  2891.4261 N.ar     882 DA      0.0000
   1413 C8         4.1972     0.5145  2891.4990 C.ar     882 DA      0.0000
   1414 N7         2.9882     1.0042  2891.6136 N.ar     882 DA      0.0000
   1415 C5         2.1680    -0.1382  2891.6072 C.ar     882 DA      0.0000
   1416 C6         0.7558    -0.2721  2891.7072 C.ar     882 DA      0.0000
   1417 N6        -0.0819     0.7615  2891.8300 N.pl3    882 DA      0.0000
   1418 N1         0.3085    -1.5585  2891.6720 N.ar     882 DA      0.0000
   1419 C2         1.1584    -2.6079  2891.5532 C.ar     882 DA      0.0000
   1420 N3         2.4903    -2.5547  2891.4617 N.ar     882 DA      0.0000
   1421 C4         2.9198    -1.2809  2891.4892 C.ar     882 DA      0.0000
   1422 H5'        9.2767    -1.0370  2892.9285 H        882 DA      0.0000
   1423 H5''       7.9730    -1.2152  2894.1468 H        882 DA      0.0000
   1424 H4'        7.9146    -3.0584  2892.4219 H        882 DA      0.0000
   1425 H3'        8.5722    -1.3123  2890.4439 H        882 DA      0.0000
   1426 H2'        6.5854     0.1655  2891.0077 H        882 DA      0.0000
   1427 H2''       6.1657    -0.6872  2889.4747 H        882 DA      0.0000
   1428 H1'        5.1797    -2.5851  2890.6923 H        882 DA      0.0000
   1429 H8         5.0851     1.1284  2891.4650 H        882 DA      0.0000
   1430 H2         0.7116    -3.5908  2891.5299 H        882 DA      0.0000
   1431 H61        0.2795     1.7043  2891.8548 H        882 DA      0.0000
   1432 H62       -1.0766     0.6001  2891.8981 H        882 DA      0.0000
   1433 P          8.2927    -3.3927  2888.7836 P.3      881 DC      0.0000
   1434 OP1        9.2903    -4.2327  2889.5638 O.co2    881 DC      0.0000
   1435 OP2        8.9188    -2.2817  2888.0580 O.co2    881 DC      0.0000
   1436 O5'        7.2474    -4.2048  2887.8077 O.3      881 DC      0.0000
   1437 C5'        6.4085    -5.2224  2888.4767 C.3      881 DC      0.0000
   1438 C4'        5.0473    -5.2180  2887.8327 C.3      881 DC      0.0000
   1439 O4'        4.1142    -4.3541  2888.4698 O.3      881 DC      0.0000
   1440 C3'        5.0857    -4.7928  2886.3549 C.3      881 DC      0.0000
   1441 O3'        4.1104    -5.4354  2885.5436 O.3      881 DC      0.0000
   1442 C2'        4.7000    -3.2863  2886.5205 C.3      881 DC      0.0000
   1443 C1'        3.4515    -3.6241  2887.4161 C.3      881 DC      0.0000
   1444 N1         2.7571    -2.3858  2887.6540 N.am     881 DC      0.0000
   1445 C2         1.4093    -2.4348  2887.9711 C.2      881 DC      0.0000
   1446 O2         0.6661    -3.4125  2888.1116 O.2      881 DC      0.0000
   1447 N3         0.7536    -1.2514  2888.1693 N.2      881 DC      0.0000
   1448 C4         1.3861    -0.0443  2888.0534 C.2      881 DC      0.0000
   1449 N4         0.7036     1.0911  2888.2694 N.pl3    881 DC      0.0000
   1450 C5         2.7692    -0.0100  2887.7237 C.2      881 DC      0.0000
   1451 C6         3.3887    -1.1805  2887.5320 C.2      881 DC      0.0000
   1452 H5'        6.8648    -6.2060  2888.3652 H        881 DC      0.0000
   1453 H5''       6.3137    -4.9804  2889.5353 H        881 DC      0.0000
   1454 H4'        4.6511    -6.2324  2887.8794 H        881 DC      0.0000
   1455 H3'        6.0859    -4.9029  2885.9358 H        881 DC      0.0000
   1456 H2'        5.4585    -2.6987  2887.0376 H        881 DC      0.0000
   1457 H2''       4.4103    -2.8334  2885.5723 H        881 DC      0.0000
   1458 H1'        2.7948    -4.3023  2886.8712 H        881 DC      0.0000
   1459 H5         3.2999     0.9261  2887.6316 H        881 DC      0.0000
   1460 H6         4.4361    -1.1720  2887.2688 H        881 DC      0.0000
   1461 H41       -0.2766     1.0531  2888.5099 H        881 DC      0.0000
   1462 H42        1.1702     1.9834  2888.1915 H        881 DC      0.0000
   1463 P         -9.4398     3.3574  2922.1427 P.3      891 DG      0.0000
   1464 OP1      -10.4332     4.4596  2922.1412 O.co2    891 DG      0.0000
   1465 OP2       -8.3833     3.7146  2923.1984 O.co2    891 DG      0.0000
   1466 O5'      -10.0048     1.8808  2922.3211 O.3      891 DG      0.0000
   1467 C5'      -10.2136     0.8610  2921.3211 C.3      891 DG      0.0000
   1468 C4'       -9.5859    -0.4238  2921.8199 C.3      891 DG      0.0000
   1469 O4'       -8.2450    -0.5570  2921.4008 O.3      891 DG      0.0000
   1470 C3'       -9.6009    -0.6872  2923.3121 C.3      891 DG      0.0000
   1471 O3'      -10.1992    -1.9741  2923.6241 O.3      891 DG      0.0000
   1472 C2'       -8.1476    -0.5827  2923.7340 C.3      891 DG      0.0000
   1473 C1'       -7.3880    -0.9365  2922.4783 C.3      891 DG      0.0000
   1474 N9        -6.0990    -0.2218  2922.4493 N.ar     891 DG      0.0000
   1475 C8        -5.8336     1.1077  2922.6782 C.ar     891 DG      0.0000
   1476 N7        -4.5616     1.4242  2922.5885 N.ar     891 DG      0.0000
   1477 C5        -3.9419     0.2182  2922.2715 C.ar     891 DG      0.0000
   1478 C6        -2.5833    -0.1141  2922.0455 C.2      891 DG      0.0000
   1479 O6        -1.6027     0.6304  2922.0668 O.2      891 DG      0.0000
   1480 N1        -2.3450    -1.4315  2921.7640 N.am     891 DG      0.0000
   1481 C2        -3.2832    -2.3215  2921.7034 C.2      891 DG      0.0000
   1482 N2        -2.7963    -3.4634  2921.4066 N.pl3    891 DG      0.0000
   1483 N3        -4.6471    -2.0931  2921.9121 N.2      891 DG      0.0000
   1484 C4        -4.8729    -0.7999  2922.1847 C.ar     891 DG      0.0000
   1485 H5'      -11.2818     0.7127  2921.1624 H        891 DG      0.0000
   1486 H5''      -9.7415     1.1616  2920.3858 H        891 DG      0.0000
   1487 H4'      -10.1389    -1.2401  2921.3552 H        891 DG      0.0000
   1488 H3'      -10.1717     0.0991  2923.8061 H        891 DG      0.0000
   1489 H2'       -7.9091     0.4293  2924.0610 H        891 DG      0.0000
   1490 H2''      -7.9289    -1.2995  2924.5255 H        891 DG      0.0000
   1491 H1'       -7.2123    -2.0118  2922.4464 H        891 DG      0.0000
   1492 H8        -6.6033     1.8287  2922.9113 H        891 DG      0.0000
   1493 H1        -1.3929    -1.7232  2921.5956 H        891 DG      0.0000
   1494 H21       -1.8020    -3.5663  2921.2622 H        891 DG      0.0000
   1495 H22       -3.4053    -4.2640  2921.3161 H        891 DG      0.0000
   1496 P        -10.0964    -2.6384  2925.0526 P.3      892 DT      0.0000
   1497 OP1      -11.3401    -3.3180  2925.5643 O.co2    892 DT      0.0000
   1498 OP2       -9.9121    -1.4169  2925.9713 O.co2    892 DT      0.0000
   1499 O5'       -8.8051    -3.4954  2925.0812 O.3      892 DT      0.0000
   1500 C5'       -8.8086    -4.9424  2924.9372 C.3      892 DT      0.0000
   1501 C4'       -7.3471    -5.3352  2924.9947 C.3      892 DT      0.0000
   1502 O4'       -6.4917    -4.2477  2924.7196 O.3      892 DT      0.0000
   1503 C3'       -6.8525    -5.8879  2926.3075 C.3      892 DT      0.0000
   1504 O3'       -6.4750    -7.2597  2926.1193 O.3      892 DT      0.0000
   1505 C2'       -5.6540    -5.0241  2926.6997 C.3      892 DT      0.0000
   1506 C1'       -5.2076    -4.5335  2925.3470 C.3      892 DT      0.0000
   1507 N1        -4.4778    -3.2692  2925.4436 N.am     892 DT      0.0000
   1508 C2        -3.1241    -3.3062  2925.2457 C.2      892 DT      0.0000
   1509 O2        -2.5203    -4.3496  2925.0075 O.2      892 DT      0.0000
   1510 N3        -2.4495    -2.1178  2925.3267 N.am     892 DT      0.0000
   1511 C4        -3.0632    -0.9402  2925.5826 C.2      892 DT      0.0000
   1512 O4        -2.3113     0.0684  2925.6279 O.2      892 DT      0.0000
   1513 C5        -4.4809    -0.9207  2925.7823 C.2      892 DT      0.0000
   1514 C7        -5.1979     0.3600  2926.0622 C.3      892 DT      0.0000
   1515 C6        -5.1326    -2.0878  2925.7008 C.2      892 DT      0.0000
   1516 H5'       -9.3645    -5.4086  2925.7507 H        892 DT      0.0000
   1517 H5''      -9.2379    -5.2251  2923.9760 H        892 DT      0.0000
   1518 H4'       -7.1768    -6.0931  2924.2302 H        892 DT      0.0000
   1519 H3'       -7.6331    -5.8135  2927.0646 H        892 DT      0.0000
   1520 H2'       -5.9490    -4.1993  2927.3485 H        892 DT      0.0000
   1521 H2''      -4.8775    -5.6281  2927.1689 H        892 DT      0.0000
   1522 H1'       -4.6447    -5.2910  2924.8016 H        892 DT      0.0000
   1523 H3        -1.4489    -2.1206  2925.1892 H        892 DT      0.0000
   1524 H6        -6.2034    -2.1014  2925.8412 H        892 DT      0.0000
   1525 H71       -5.6991     0.7018  2925.1567 H        892 DT      0.0000
   1526 H72       -4.4808     1.1139  2926.3870 H        892 DT      0.0000
   1527 H73       -5.9364     0.1988  2926.8475 H        892 DT      0.0000
   1528 P         -6.8296    -8.1988  2927.3992 P.3      893 DG      0.0000
   1529 OP1       -7.2310    -9.4827  2926.6841 O.co2    893 DG      0.0000
   1530 OP2       -7.9058    -7.5805  2928.1527 O.co2    893 DG      0.0000
   1531 O5'       -5.3156    -8.2224  2928.0087 O.3      893 DG      0.0000
   1532 C5'       -4.3533    -8.4829  2926.9181 C.3      893 DG      0.0000
   1533 C4'       -2.9812    -8.1700  2927.4382 C.3      893 DG      0.0000
   1534 O4'       -2.5275    -6.8551  2927.2576 O.3      893 DG      0.0000
   1535 C3'       -2.8328    -8.4882  2928.9462 C.3      893 DG      0.0000
   1536 O3'       -1.6947    -9.3694  2929.1051 O.3      893 DG      0.0000
   1537 C2'       -2.7261    -7.1264  2929.5988 C.3      893 DG      0.0000
   1538 C1'       -2.0187    -6.3184  2928.5172 C.3      893 DG      0.0000
   1539 N9        -2.2518    -4.8798  2928.6868 N.ar     893 DG      0.0000
   1540 C8        -3.4098    -4.2345  2929.0230 C.ar     893 DG      0.0000
   1541 N7        -3.3035    -2.9268  2929.1087 N.ar     893 DG      0.0000
   1542 C5        -1.9693    -2.7001  2928.7787 C.ar     893 DG      0.0000
   1543 C6        -1.2260    -1.4888  2928.6844 C.2      893 DG      0.0000
   1544 O6        -1.6225    -0.3297  2928.8767 O.2      893 DG      0.0000
   1545 N1         0.0979    -1.6587  2928.3493 N.am     893 DG      0.0000
   1546 C2         0.6321    -2.8909  2928.1255 C.2      893 DG      0.0000
   1547 N2         1.9353    -2.8655  2927.8167 N.pl3    893 DG      0.0000
   1548 N3        -0.0202    -4.0490  2928.1966 N.2      893 DG      0.0000
   1549 C4        -1.3137    -3.8853  2928.5232 C.ar     893 DG      0.0000
   1550 H5'       -4.4069    -9.5292  2926.6177 H        893 DG      0.0000
   1551 H5''      -4.5795    -7.8423  2926.0657 H        893 DG      0.0000
   1552 H4'       -2.2857    -8.8203  2926.9076 H        893 DG      0.0000
   1553 H3'       -3.7327    -8.9907  2929.3010 H        893 DG      0.0000
   1554 H2'       -3.7105    -6.7149  2929.8217 H        893 DG      0.0000
   1555 H2''      -2.1170    -7.1784  2930.5012 H        893 DG      0.0000
   1556 H1'       -0.9476    -6.5117  2928.5762 H        893 DG      0.0000
   1557 H8        -4.3375    -4.7573  2929.2036 H        893 DG      0.0000
   1558 H1         0.6908    -0.8452  2928.2670 H        893 DG      0.0000
   1559 H21        2.4253    -1.9838  2927.7665 H        893 DG      0.0000
   1560 H22        2.4279    -3.7281  2927.6341 H        893 DG      0.0000
   1561 P         -1.3235    -9.9845  2930.4935 P.3      894 DA      0.0000
   1562 OP1       -1.9673   -11.2854  2930.8489 O.co2    894 DA      0.0000
   1563 OP2       -1.9798    -8.8706  2931.3892 O.co2    894 DA      0.0000
   1564 O5'        0.2325    -9.8069  2930.7426 O.3      894 DA      0.0000
   1565 C5'        1.2173    -9.6311  2929.7136 C.3      894 DA      0.0000
   1566 C4'        2.0917    -8.4817  2930.1879 C.3      894 DA      0.0000
   1567 O4'        1.3900    -7.2603  2930.0975 O.3      894 DA      0.0000
   1568 C3'        2.6254    -8.5826  2931.6169 C.3      894 DA      0.0000
   1569 O3'        4.0362    -8.2864  2931.6692 O.3      894 DA      0.0000
   1570 C2'        1.7678    -7.5455  2932.3524 C.3      894 DA      0.0000
   1571 C1'        1.7069    -6.4735  2931.2748 C.3      894 DA      0.0000
   1572 N9         0.6683    -5.4640  2931.5032 N.ar     894 DA      0.0000
   1573 C8        -0.6720    -5.6163  2931.7189 C.ar     894 DA      0.0000
   1574 N7        -1.3173    -4.4831  2931.8839 N.ar     894 DA      0.0000
   1575 C5        -0.3328    -3.5164  2931.7437 C.ar     894 DA      0.0000
   1576 C6        -0.3924    -2.1065  2931.7917 C.ar     894 DA      0.0000
   1577 N6        -1.5069    -1.4050  2932.0115 N.pl3    894 DA      0.0000
   1578 N1         0.7996    -1.4663  2931.6019 N.ar     894 DA      0.0000
   1579 C2         1.9417    -2.1584  2931.3841 C.ar     894 DA      0.0000
   1580 N3         2.0733    -3.4830  2931.3259 N.ar     894 DA      0.0000
   1581 C4         0.8905    -4.0966  2931.5127 C.ar     894 DA      0.0000
   1582 H5'        0.7392    -9.3813  2928.7664 H        894 DA      0.0000
   1583 H5''       1.8138   -10.5370  2929.6058 H        894 DA      0.0000
   1584 H4'        2.9496    -8.4205  2929.5181 H        894 DA      0.0000
   1585 H3'        2.4361    -9.5782  2932.0184 H        894 DA      0.0000
   1586 H2'        0.7793    -7.9337  2932.5979 H        894 DA      0.0000
   1587 H2''       2.2765    -7.1772  2933.2433 H        894 DA      0.0000
   1588 H1'        2.6801    -5.9961  2931.1603 H        894 DA      0.0000
   1589 H8        -1.1574    -6.5806  2931.7510 H        894 DA      0.0000
   1590 H2         2.8405    -1.5763  2931.2428 H        894 DA      0.0000
   1591 H61       -2.4458    -1.7644  2931.9141 H        894 DA      0.0000
   1592 H62       -1.4884    -0.4098  2931.8399 H        894 DA      0.0000
   1593 P          5.0275    -8.9288  2932.8107 P.3      895 DA      0.0000
   1594 OP1        6.0884    -9.7685  2932.1436 O.co2    895 DA      0.0000
   1595 OP2        4.0598    -9.6738  2933.6416 O.co2    895 DA      0.0000
   1596 O5'        5.8165    -7.6479  2933.3415 O.3      895 DA      0.0000
   1597 C5'        6.6550    -6.8401  2932.5172 C.3      895 DA      0.0000
   1598 C4'        6.5987    -5.4152  2933.0395 C.3      895 DA      0.0000
   1599 O4'        5.2837    -4.9365  2933.0677 O.3      895 DA      0.0000
   1600 C3'        7.2030    -5.1464  2934.4068 C.3      895 DA      0.0000
   1601 O3'        8.3181    -4.2587  2934.3290 O.3      895 DA      0.0000
   1602 C2'        6.0185    -4.6342  2935.2355 C.3      895 DA      0.0000
   1603 C1'        5.0684    -4.0882  2934.2417 C.3      895 DA      0.0000
   1604 N9         3.6189    -4.1012  2934.5098 N.ar     895 DA      0.0000
   1605 C8         2.7513    -5.1602  2934.6250 C.ar     895 DA      0.0000
   1606 N7         1.4979    -4.8113  2934.7943 N.ar     895 DA      0.0000
   1607 C5         1.5329    -3.4210  2934.7573 C.ar     895 DA      0.0000
   1608 C6         0.5043    -2.4435  2934.8777 C.ar     895 DA      0.0000
   1609 N6        -0.7836    -2.7003  2935.0693 N.pl3    895 DA      0.0000
   1610 N1         0.9135    -1.1372  2934.7795 N.ar     895 DA      0.0000
   1611 C2         2.2306    -0.8338  2934.5905 C.ar     895 DA      0.0000
   1612 N3         3.2374    -1.6932  2934.4826 N.ar     895 DA      0.0000
   1613 C4         2.8203    -2.9720  2934.5745 C.ar     895 DA      0.0000
   1614 H5'        6.2997    -6.8701  2931.4871 H        895 DA      0.0000
   1615 H5''       7.6800    -7.2080  2932.5631 H        895 DA      0.0000
   1616 H4'        7.1440    -4.7965  2932.3268 H        895 DA      0.0000
   1617 H3'        7.5404    -6.0925  2934.8300 H        895 DA      0.0000
   1618 H2'        5.5611    -5.4497  2935.7958 H        895 DA      0.0000
   1619 H2''       6.3463    -3.8476  2935.9151 H        895 DA      0.0000
   1620 H1'        5.3683    -3.0696  2933.9957 H        895 DA      0.0000
   1621 H8         3.0729    -6.1902  2934.5801 H        895 DA      0.0000
   1622 H2         2.4802     0.2146  2934.5213 H        895 DA      0.0000
   1623 H61       -1.1114    -3.5982  2935.3955 H        895 DA      0.0000
   1624 H62       -1.4590    -1.9729  2934.8825 H        895 DA      0.0000
   1625 P          9.6325    -4.3061  2935.2852 P.3      896 DT      0.0000
   1626 OP1       10.9126    -4.0826  2934.4879 O.co2    896 DT      0.0000
   1627 OP2        9.6254    -5.4990  2936.1058 O.co2    896 DT      0.0000
   1628 O5'        9.4992    -2.8830  2936.0989 O.3      896 DT      0.0000
   1629 C5'        9.0419    -1.8236  2935.1538 C.3      896 DT      0.0000
   1630 C4'        8.0280    -1.0335  2935.9415 C.3      896 DT      0.0000
   1631 O4'        6.8067    -1.7114  2936.1335 O.3      896 DT      0.0000
   1632 C3'        8.5274    -0.6943  2937.3581 C.3      896 DT      0.0000
   1633 O3'        9.0462     0.6228  2937.3598 O.3      896 DT      0.0000
   1634 C2'        7.3106    -0.9060  2938.2553 C.3      896 DT      0.0000
   1635 C1'        6.1959    -0.9905  2937.2907 C.3      896 DT      0.0000
   1636 N1         4.9762    -1.7059  2937.6305 N.am     896 DT      0.0000
   1637 C2         3.8192    -0.9453  2937.7684 C.2      896 DT      0.0000
   1638 O2         3.8784     0.2743  2937.6804 O.2      896 DT      0.0000
   1639 N3         2.6486    -1.5940  2938.0224 N.am     896 DT      0.0000
   1640 C4         2.5687    -2.9519  2938.1426 C.2      896 DT      0.0000
   1641 O4         1.4405    -3.4819  2938.3978 O.2      896 DT      0.0000
   1642 C5         3.7696    -3.7163  2937.9710 C.2      896 DT      0.0000
   1643 C7         3.7325    -5.2169  2938.0585 C.3      896 DT      0.0000
   1644 C6         4.9211    -3.0718  2937.7152 C.2      896 DT      0.0000
   1645 H5'        9.8756    -1.1895  2934.8521 H        896 DT      0.0000
   1646 H5''       8.5734    -2.2741  2934.2788 H        896 DT      0.0000
   1647 H4'        7.8277    -0.1018  2935.4124 H        896 DT      0.0000
   1648 H3'        9.3135    -1.3939  2937.6424 H        896 DT      0.0000
   1649 H2'        7.4028    -1.8283  2938.8288 H        896 DT      0.0000
   1650 H2''       7.1749    -0.0542  2938.9218 H        896 DT      0.0000
   1651 H1'        5.9318     0.0183  2936.9734 H        896 DT      0.0000
   1652 H3         1.8051    -1.0482  2938.1261 H        896 DT      0.0000
   1653 H6         5.8252    -3.6452  2937.5731 H        896 DT      0.0000
   1654 H71        2.7148    -5.5440  2938.2715 H        896 DT      0.0000
   1655 H72        4.0603    -5.6441  2937.1107 H        896 DT      0.0000
   1656 H73        4.3960    -5.5509  2938.8563 H        896 DT      0.0000
   1657 P          9.8519     1.3549  2938.4664 P.3      897 DT      0.0000
   1658 OP1       10.6797     2.5145  2937.8543 O.co2    897 DT      0.0000
   1659 OP2       10.7221     0.3286  2939.0964 O.co2    897 DT      0.0000
   1660 O5'        8.7381     2.0984  2939.3487 O.3      897 DT      0.0000
   1661 C5'        8.1121     3.1994  2938.6370 C.3      897 DT      0.0000
   1662 C4'        6.8288     3.5370  2939.3131 C.3      897 DT      0.0000
   1663 O4'        5.8730     2.4841  2939.2898 O.3      897 DT      0.0000
   1664 C3'        6.9784     3.9662  2940.7797 C.3      897 DT      0.0000
   1665 O3'        6.1671     5.0950  2941.0438 O.3      897 DT      0.0000
   1666 C2'        6.4106     2.7296  2941.5161 C.3      897 DT      0.0000
   1667 C1'        5.2181     2.4907  2940.6125 C.3      897 DT      0.0000
   1668 N1         4.5831     1.2202  2940.9102 N.am     897 DT      0.0000
   1669 C2         3.1997     1.1695  2940.9650 C.2      897 DT      0.0000
   1670 O2         2.5573     2.2036  2940.7766 O.2      897 DT      0.0000
   1671 N3         2.6071    -0.0328  2941.2309 N.am     897 DT      0.0000
   1672 C4         3.3294    -1.1677  2941.4380 C.2      897 DT      0.0000
   1673 O4         2.7111    -2.2477  2941.6613 O.2      897 DT      0.0000
   1674 C5         4.7519    -1.1046  2941.3729 C.2      897 DT      0.0000
   1675 C7         5.6171    -2.3130  2941.5828 C.3      897 DT      0.0000
   1676 C6         5.3174     0.0842  2941.1118 C.2      897 DT      0.0000
   1677 H5'        8.7723     4.0667  2938.6494 H        897 DT      0.0000
   1678 H5''       7.9157     2.9041  2937.6062 H        897 DT      0.0000
   1679 H4'        6.3933     4.3787  2938.7746 H        897 DT      0.0000
   1680 H3'        8.0206     4.1484  2941.0422 H        897 DT      0.0000
   1681 H2'        7.1063     1.8905  2941.5148 H        897 DT      0.0000
   1682 H2''       6.0960     2.9816  2942.5288 H        897 DT      0.0000
   1683 H1'        4.5029     3.3098  2940.6881 H        897 DT      0.0000
   1684 H3         1.5992    -0.0808  2941.2753 H        897 DT      0.0000
   1685 H6         6.3943     0.1461  2941.0587 H        897 DT      0.0000
   1686 H71        4.9882    -3.1807  2941.7817 H        897 DT      0.0000
   1687 H72        6.2121    -2.4934  2940.6875 H        897 DT      0.0000
   1688 H73        6.2798    -2.1424  2942.4312 H        897 DT      0.0000
   1689 P          6.3777     6.5264  2941.6517 P.3      898 DC      0.0000
   1690 OP1        6.2899     7.5997  2940.5838 O.co2    898 DC      0.0000
   1691 OP2        7.6537     6.4541  2942.3867 O.co2    898 DC      0.0000
   1692 O5'        4.9724     6.5813  2942.4777 O.3      898 DC      0.0000
   1693 C5'        3.9588     6.2604  2941.4555 C.3      898 DC      0.0000
   1694 C4'        2.6285     6.2185  2942.1520 C.3      898 DC      0.0000
   1695 O4'        2.1926     4.9176  2942.3989 O.3      898 DC      0.0000
   1696 C3'        2.5484     7.0247  2943.4435 C.3      898 DC      0.0000
   1697 O3'        1.4991     7.9802  2943.3638 O.3      898 DC      0.0000
   1698 C2'        2.4401     5.9156  2944.4922 C.3      898 DC      0.0000
   1699 C1'        1.7599     4.8043  2943.7958 C.3      898 DC      0.0000
   1700 N1         2.1931     3.4434  2944.1279 N.am     898 DC      0.0000
   1701 C2         1.1758     2.5265  2944.3837 C.2      898 DC      0.0000
   1702 O2        -0.0109     2.8678  2944.3882 O.2      898 DC      0.0000
   1703 N3         1.5446     1.2326  2944.6575 N.2      898 DC      0.0000
   1704 C4         2.8530     0.8477  2944.6476 C.2      898 DC      0.0000
   1705 N4         3.1086    -0.4262  2944.9245 N.pl3    898 DC      0.0000
   1706 C5         3.8725     1.7846  2944.3696 C.2      898 DC      0.0000
   1707 C6         3.4942     3.0520  2944.1048 C.2      898 DC      0.0000
   1708 H5'        3.9518     7.0283  2940.6818 H        898 DC      0.0000
   1709 H5''       4.1753     5.2889  2941.0113 H        898 DC      0.0000
   1710 H4'        1.9065     6.6614  2941.4660 H        898 DC      0.0000
   1711 H3'        3.4918     7.5515  2943.5867 H        898 DC      0.0000
   1712 H2'        3.4299     5.6086  2944.8301 H        898 DC      0.0000
   1713 H2''       1.8410     6.2536  2945.3378 H        898 DC      0.0000
   1714 H1'        0.6771     4.8988  2943.8768 H        898 DC      0.0000
   1715 H5         4.9137     1.4979  2944.3690 H        898 DC      0.0000
   1716 H6         4.2530     3.7824  2943.8658 H        898 DC      0.0000
   1717 H41        2.3495    -1.0619  2945.1237 H        898 DC      0.0000
   1718 H42        4.0622    -0.7590  2944.9358 H        898 DC      0.0000
   1719 P          1.3087     9.2805  2944.3158 P.3      899 DA      0.0000
   1720 OP1        0.5122    10.2983  2943.5221 O.co2    899 DA      0.0000
   1721 OP2        2.6522     9.7878  2944.6614 O.co2    899 DA      0.0000
   1722 O5'        0.4759     8.7040  2945.6128 O.3      899 DA      0.0000
   1723 C5'       -0.7531     7.9722  2945.3176 C.3      899 DA      0.0000
   1724 C4'       -1.3483     7.4238  2946.5729 C.3      899 DA      0.0000
   1725 O4'       -1.0845     6.0386  2946.8150 O.3      899 DA      0.0000
   1726 C3'       -0.8662     8.0787  2947.8781 C.3      899 DA      0.0000
   1727 O3'       -1.8157     7.7943  2948.9080 O.3      899 DA      0.0000
   1728 C2'        0.4344     7.2791  2948.0927 C.3      899 DA      0.0000
   1729 C1'       -0.1833     5.8887  2947.9094 C.3      899 DA      0.0000
   1730 N9         0.8790     4.9017  2947.8151 N.ar     899 DA      0.0000
   1731 C8         2.2325     5.0584  2947.6993 C.ar     899 DA      0.0000
   1732 N7         2.9248     3.9335  2947.6807 N.ar     899 DA      0.0000
   1733 C5         1.9444     2.9572  2947.7882 C.ar     899 DA      0.0000
   1734 C6         2.0135     1.5426  2947.8227 C.ar     899 DA      0.0000
   1735 N6         3.1319     0.8449  2947.7375 N.pl3    899 DA      0.0000
   1736 N1         0.8239     0.8855  2947.9553 N.ar     899 DA      0.0000
   1737 C2        -0.3601     1.5691  2948.0355 C.ar     899 DA      0.0000
   1738 N3        -0.5053     2.8918  2948.0057 N.ar     899 DA      0.0000
   1739 C4         0.6855     3.5277  2947.8826 C.ar     899 DA      0.0000
   1740 H5'       -1.4680     8.6467  2944.8464 H        899 DA      0.0000
   1741 H5''      -0.5291     7.1513  2944.6363 H        899 DA      0.0000
   1742 H4'       -2.4290     7.5525  2946.5140 H        899 DA      0.0000
   1743 H3'       -0.6835     9.1472  2947.7644 H        899 DA      0.0000
   1744 H2'        1.1923     7.5028  2947.3419 H        899 DA      0.0000
   1745 H2''       0.8223     7.4127  2949.1026 H        899 DA      0.0000
   1746 H1'       -0.7714     5.6637  2948.7991 H        899 DA      0.0000
   1747 H8         2.7005     6.0291  2947.6283 H        899 DA      0.0000
   1748 H2        -1.2600     0.9799  2948.1319 H        899 DA      0.0000
   1749 H61        3.3756    -0.1186  2947.9175 H        899 DA      0.0000
   1750 H62        3.9169     1.3970  2947.4227 H        899 DA      0.0000
   1751 P         -3.1704     8.6343  2949.0485 P.3      900 DC      0.0000
   1752 OP1       -3.5404     9.3650  2947.8034 O.co2    900 DC      0.0000
   1753 OP2       -2.8554     9.5555  2950.1914 O.co2    900 DC      0.0000
   1754 O5'       -4.2624     7.5199  2949.3317 O.3      900 DC      0.0000
   1755 C5'       -4.8589     6.7505  2948.2440 C.3      900 DC      0.0000
   1756 C4'       -5.1947     5.4314  2948.9489 C.3      900 DC      0.0000
   1757 O4'       -3.9749     4.7994  2949.2609 O.3      900 DC      0.0000
   1758 C3'       -5.9577     5.6103  2950.2588 C.3      900 DC      0.0000
   1759 O3'       -7.1559     4.8044  2950.3267 O.3      900 DC      0.0000
   1760 C2'       -4.9261     5.2573  2951.3410 C.3      900 DC      0.0000
   1761 C1'       -4.0843     4.2526  2950.6648 C.3      900 DC      0.0000
   1762 N1        -2.6783     4.0738  2951.0177 N.am     900 DC      0.0000
   1763 C2        -2.2240     2.7565  2950.9908 C.2      900 DC      0.0000
   1764 O2        -2.9664     1.8049  2950.7839 O.2      900 DC      0.0000
   1765 N3        -0.9045     2.5454  2951.2439 N.2      900 DC      0.0000
   1766 C4        -0.0369     3.5597  2951.4773 C.2      900 DC      0.0000
   1767 N4         1.2317     3.2268  2951.7082 N.pl3    900 DC      0.0000
   1768 C5        -0.5100     4.9007  2951.4838 C.2      900 DC      0.0000
   1769 C6        -1.8132     5.1014  2951.2344 C.2      900 DC      0.0000
   1770 H5'       -5.7560     7.2354  2947.8591 H        900 DC      0.0000
   1771 H5''      -4.1356     6.5876  2947.4449 H        900 DC      0.0000
   1772 H4'       -5.7713     4.7965  2948.2762 H        900 DC      0.0000
   1773 H3'       -6.2333     6.6596  2950.3647 H        900 DC      0.0000
   1774 H2'       -4.3419     6.1317  2951.6280 H        900 DC      0.0000
   1775 H2''      -5.4175     4.8224  2952.2113 H        900 DC      0.0000
   1776 H1'       -4.5918     3.2880  2950.6516 H        900 DC      0.0000
   1777 H5         0.1556     5.7278  2951.6823 H        900 DC      0.0000
   1778 H6        -2.1884     6.1136  2951.2047 H        900 DC      0.0000
   1779 H41        1.5090     2.2557  2951.6971 H        900 DC      0.0000
   1780 H42        1.9165     3.9455  2951.8943 H        900 DC      0.0000
   1781 P          6.2012    -5.7958  2953.2862 P.3      900 DG      0.0000
   1782 OP1        7.3307    -6.7598  2953.4650 O.co2    900 DG      0.0000
   1783 OP2        6.4669    -4.7604  2952.2014 O.co2    900 DG      0.0000
   1784 O5'        4.7983    -6.6313  2953.0790 O.3      900 DG      0.0000
   1785 C5'        3.8251    -6.6758  2954.1748 C.3      900 DG      0.0000
   1786 C4'        2.4382    -6.5997  2953.5405 C.3      900 DG      0.0000
   1787 O4'        1.9762    -5.2800  2953.4447 O.3      900 DG      0.0000
   1788 C3'        2.3537    -7.1871  2952.1341 C.3      900 DG      0.0000
   1789 O3'        1.1388    -7.9251  2951.8672 O.3      900 DG      0.0000
   1790 C2'        2.4690    -5.9452  2951.2319 C.3      900 DG      0.0000
   1791 C1'        1.7033    -4.9233  2952.0557 C.3      900 DG      0.0000
   1792 N9         2.1804    -3.5569  2951.7824 N.ar     900 DG      0.0000
   1793 C8         3.4777    -3.1302  2951.6257 C.ar     900 DG      0.0000
   1794 N7         3.5920    -1.8471  2951.4073 N.ar     900 DG      0.0000
   1795 C5         2.2794    -1.3907  2951.4321 C.ar     900 DG      0.0000
   1796 C6         1.7368    -0.0874  2951.2756 C.2      900 DG      0.0000
   1797 O6         2.3704     0.9593  2951.0788 O.2      900 DG      0.0000
   1798 N1         0.3676    -0.0311  2951.3625 N.am     900 DG      0.0000
   1799 C2        -0.3976    -1.1281  2951.5832 C.2      900 DG      0.0000
   1800 N2        -1.7099    -0.9195  2951.6466 N.pl3    900 DG      0.0000
   1801 N3         0.0620    -2.3754  2951.7409 N.2      900 DG      0.0000
   1802 C4         1.4055    -2.4299  2951.6577 C.ar     900 DG      0.0000
   1803 H5'        3.9314    -7.6062  2954.7325 H        900 DG      0.0000
   1804 H5''       3.9760    -5.8254  2954.8397 H        900 DG      0.0000
   1805 H4'        1.7470    -7.1520  2954.1772 H        900 DG      0.0000
   1806 H3'        3.2128    -7.8359  2951.9637 H        900 DG      0.0000
   1807 H2'        3.5079    -5.6482  2951.0892 H        900 DG      0.0000
   1808 H2''       1.9793    -6.1158  2950.2731 H        900 DG      0.0000
   1809 H1'        0.6353    -4.9976  2951.8504 H        900 DG      0.0000
   1810 H8         4.3265    -3.7960  2951.6785 H        900 DG      0.0000
   1811 H1        -0.0880     0.8642  2951.2577 H        900 DG      0.0000
   1812 H21       -2.0791     0.0135  2951.5315 H        900 DG      0.0000
   1813 H22       -2.3370    -1.6942  2951.8097 H        900 DG      0.0000
   1814 P          0.6419    -7.9152  2950.3437 P.3      899 DT      0.0000
   1815 OP1       -0.1407    -9.1398  2949.9528 O.co2    899 DT      0.0000
   1816 OP2        1.9488    -7.8663  2949.6431 O.co2    899 DT      0.0000
   1817 O5'       -0.2780    -6.6098  2950.2128 O.3      899 DT      0.0000
   1818 C5'       -1.7067    -6.7807  2950.4804 C.3      899 DT      0.0000
   1819 C4'       -2.4661    -5.7130  2949.7234 C.3      899 DT      0.0000
   1820 O4'       -1.7896    -4.4688  2949.6961 O.3      899 DT      0.0000
   1821 C3'       -2.7178    -6.0784  2948.2687 C.3      899 DT      0.0000
   1822 O3'       -4.0101    -5.6659  2947.7735 O.3      899 DT      0.0000
   1823 C2'       -1.5880    -5.3791  2947.5458 C.3      899 DT      0.0000
   1824 C1'       -1.5664    -4.0738  2948.3239 C.3      899 DT      0.0000
   1825 N1        -0.2147    -3.5127  2948.1726 N.am     899 DT      0.0000
   1826 C2        -0.1080    -2.1297  2948.2794 C.2      899 DT      0.0000
   1827 O2        -1.1055    -1.4421  2948.4691 O.2      899 DT      0.0000
   1828 N3         1.1417    -1.5892  2948.1592 N.am     899 DT      0.0000
   1829 C4         2.2434    -2.3612  2947.9416 C.2      899 DT      0.0000
   1830 O4         3.3673    -1.7662  2947.8441 O.2      899 DT      0.0000
   1831 C5         2.1025    -3.7744  2947.8352 C.2      899 DT      0.0000
   1832 C7         3.3111    -4.6360  2947.6063 C.3      899 DT      0.0000
   1833 C6         0.8795    -4.2970  2947.9570 C.2      899 DT      0.0000
   1834 H5'       -2.0281    -7.7673  2950.1467 H        899 DT      0.0000
   1835 H5''      -1.8945    -6.6761  2951.5490 H        899 DT      0.0000
   1836 H4'       -3.4299    -5.5677  2950.2113 H        899 DT      0.0000
   1837 H3'       -2.6120    -7.1562  2948.1447 H        899 DT      0.0000
   1838 H2'       -0.6478    -5.9230  2947.6373 H        899 DT      0.0000
   1839 H2''      -1.8401    -5.2068  2946.4994 H        899 DT      0.0000
   1840 H1'       -2.3324    -3.3821  2947.9732 H        899 DT      0.0000
   1841 H3         1.2519    -0.5880  2948.2339 H        899 DT      0.0000
   1842 H6         0.7542    -5.3671  2947.8829 H        899 DT      0.0000
   1843 H71        4.1986    -4.0069  2947.5376 H        899 DT      0.0000
   1844 H72        3.4231    -5.3325  2948.4372 H        899 DT      0.0000
   1845 H73        3.1887    -5.1943  2946.6781 H        899 DT      0.0000
   1846 P         -4.6748    -6.9724  2946.9952 P.3      898 DG      0.0000
   1847 OP1       -5.5727    -7.7890  2947.8664 O.co2    898 DG      0.0000
   1848 OP2       -3.4173    -7.6486  2946.5896 O.co2    898 DG      0.0000
   1849 O5'       -5.5904    -6.2320  2945.9143 O.3      898 DG      0.0000
   1850 C5'       -6.8606    -5.6751  2946.3378 C.3      898 DG      0.0000
   1851 C4'       -6.8161    -4.2195  2945.8901 C.3      898 DG      0.0000
   1852 O4'       -5.5387    -3.6781  2946.1608 O.3      898 DG      0.0000
   1853 C3'       -7.0975    -4.0086  2944.4023 C.3      898 DG      0.0000
   1854 O3'       -8.1745    -3.1128  2944.1938 O.3      898 DG      0.0000
   1855 C2'       -5.7625    -3.5718  2943.8256 C.3      898 DG      0.0000
   1856 C1'       -5.0798    -2.9328  2945.0118 C.3      898 DG      0.0000
   1857 N9        -3.6224    -3.0230  2944.8882 N.ar     898 DG      0.0000
   1858 C8        -2.8522    -4.1402  2944.7293 C.ar     898 DG      0.0000
   1859 N7        -1.5681    -3.8890  2944.6513 N.ar     898 DG      0.0000
   1860 C5        -1.4850    -2.5065  2944.7888 C.ar     898 DG      0.0000
   1861 C6        -0.3754    -1.6207  2944.7983 C.2      898 DG      0.0000
   1862 O6         0.8107    -1.9181  2944.6992 O.2      898 DG      0.0000
   1863 N1        -0.7016    -0.3027  2944.9472 N.am     898 DG      0.0000
   1864 C2        -2.0032     0.1169  2945.0801 C.2      898 DG      0.0000
   1865 N2        -2.1804     1.4314  2945.2158 N.pl3    898 DG      0.0000
   1866 N3        -3.0899    -0.6617  2945.0844 N.2      898 DG      0.0000
   1867 C4        -2.7509    -1.9648  2944.9337 C.ar     898 DG      0.0000
   1868 H5'       -7.6881    -6.1987  2945.8591 H        898 DG      0.0000
   1869 H5''      -6.9548    -5.7331  2947.4221 H        898 DG      0.0000
   1870 H4'       -7.5557    -3.6602  2946.4631 H        898 DG      0.0000
   1871 H3'       -7.3621    -4.9707  2943.9638 H        898 DG      0.0000
   1872 H2'       -5.1944    -4.4269  2943.4593 H        898 DG      0.0000
   1873 H2''      -5.9102    -2.8415  2943.0301 H        898 DG      0.0000
   1874 H1'       -5.3827    -1.8894  2945.0988 H        898 DG      0.0000
   1875 H8        -3.2631    -5.1374  2944.6732 H        898 DG      0.0000
   1876 H1         0.0375     0.3855  2944.9601 H        898 DG      0.0000
   1877 H21       -1.3828     2.0511  2945.2168 H        898 DG      0.0000
   1878 H22       -3.1121     1.8075  2945.3176 H        898 DG      0.0000
   1879 P         -8.3940    -1.8095  2943.3275 P.3      897 DA      0.0000
   1880 OP1       -9.2342    -0.7913  2944.1089 O.co2    897 DA      0.0000
   1881 OP2       -9.1151    -2.2599  2942.1348 O.co2    897 DA      0.0000
   1882 O5'       -6.9252    -1.1267  2943.1527 O.3      897 DA      0.0000
   1883 C5'       -6.5804    -0.2752  2944.3092 C.3      897 DA      0.0000
   1884 C4'       -6.4390     1.1310  2943.7814 C.3      897 DA      0.0000
   1885 O4'       -5.0988     1.4896  2943.5591 O.3      897 DA      0.0000
   1886 C3'       -7.1430     1.3378  2942.4409 C.3      897 DA      0.0000
   1887 O3'       -7.8098     2.5751  2942.3657 O.3      897 DA      0.0000
   1888 C2'       -6.0283     1.0749  2941.4443 C.3      897 DA      0.0000
   1889 C1'       -4.7382     1.3419  2942.1682 C.3      897 DA      0.0000
   1890 N9        -3.7558     0.2679  2941.9427 N.ar     897 DA      0.0000
   1891 C8        -3.9737    -1.0801  2941.7563 C.ar     897 DA      0.0000
   1892 N7        -2.8820    -1.7831  2941.5604 N.ar     897 DA      0.0000
   1893 C5        -1.8721    -0.8329  2941.6473 C.ar     897 DA      0.0000
   1894 C6        -0.4664    -0.9491  2941.5416 C.ar     897 DA      0.0000
   1895 N6         0.1632    -2.0912  2941.3291 N.pl3    897 DA      0.0000
   1896 N1         0.2409     0.2078  2941.6653 N.ar     897 DA      0.0000
   1897 C2        -0.3829     1.4020  2941.8899 C.ar     897 DA      0.0000
   1898 N3        -1.6974     1.5787  2942.0057 N.ar     897 DA      0.0000
   1899 C4        -2.3897     0.4219  2941.8696 C.ar     897 DA      0.0000
   1900 H5'       -7.3719    -0.3184  2945.0573 H        897 DA      0.0000
   1901 H5''      -5.6377    -0.6050  2944.7459 H        897 DA      0.0000
   1902 H4'       -6.8673     1.8203  2944.5091 H        897 DA      0.0000
   1903 H3'       -7.8866     0.5489  2942.3278 H        897 DA      0.0000
   1904 H2'       -6.1243     1.7417  2940.5874 H        897 DA      0.0000
   1905 H2''      -6.0618     0.0368  2941.1138 H        897 DA      0.0000
   1906 H1'       -4.3208     2.2829  2941.8100 H        897 DA      0.0000
   1907 H8        -4.9594    -1.5213  2941.7702 H        897 DA      0.0000
   1908 H2         0.2434     2.2771  2941.9811 H        897 DA      0.0000
   1909 H61        1.1125    -2.2311  2941.6446 H        897 DA      0.0000
   1910 H62       -0.3131    -2.8375  2940.8429 H        897 DA      0.0000
   1911 P         -7.9653     3.6092  2941.1811 P.3      896 DA      0.0000
   1912 OP1       -8.5697     4.9462  2941.7010 O.co2    896 DA      0.0000
   1913 OP2       -8.9410     2.9652  2940.2474 O.co2    896 DA      0.0000
   1914 O5'       -6.5165     3.9704  2940.6784 O.3      896 DA      0.0000
   1915 C5'       -5.8763     5.1802  2941.1342 C.3      896 DA      0.0000
   1916 C4'       -4.5384     5.2633  2940.4323 C.3      896 DA      0.0000
   1917 O4'       -3.8746     4.0375  2940.3116 O.3      896 DA      0.0000
   1918 C3'       -4.6243     5.8518  2939.0248 C.3      896 DA      0.0000
   1919 O3'       -3.9429     7.1201  2938.9933 O.3      896 DA      0.0000
   1920 C2'       -4.1090     4.7269  2938.1252 C.3      896 DA      0.0000
   1921 C1'       -3.1789     3.9687  2939.0230 C.3      896 DA      0.0000
   1922 N9        -2.9955     2.5524  2938.7234 N.ar     896 DA      0.0000
   1923 C8        -3.9452     1.5709  2938.5287 C.ar     896 DA      0.0000
   1924 N7        -3.4382     0.3758  2938.3232 N.ar     896 DA      0.0000
   1925 C5        -2.0728     0.5706  2938.3978 C.ar     896 DA      0.0000
   1926 C6        -0.9841    -0.3200  2938.2643 C.ar     896 DA      0.0000
   1927 N6        -1.1167    -1.6204  2938.0211 N.pl3    896 DA      0.0000
   1928 N1         0.2561     0.2470  2938.4131 N.ar     896 DA      0.0000
   1929 C2         0.4213     1.5597  2938.6656 C.ar     896 DA      0.0000
   1930 N3        -0.5577     2.4588  2938.8045 N.ar     896 DA      0.0000
   1931 C4        -1.7783     1.8972  2938.6573 C.ar     896 DA      0.0000
   1932 H5'       -6.4872     6.0460  2940.8791 H        896 DA      0.0000
   1933 H5''      -5.7269     5.1367  2942.2131 H        896 DA      0.0000
   1934 H4'       -3.9013     5.9220  2941.0224 H        896 DA      0.0000
   1935 H3'       -5.6749     6.0228  2938.7898 H        896 DA      0.0000
   1936 H2'       -4.9276     4.0925  2937.7853 H        896 DA      0.0000
   1937 H2''      -3.5665     5.1379  2937.2739 H        896 DA      0.0000
   1938 H1'       -2.2143     4.4725  2939.0841 H        896 DA      0.0000
   1939 H8        -5.0072     1.7665  2938.5436 H        896 DA      0.0000
   1940 H2         1.4354     1.9177  2938.7647 H        896 DA      0.0000
   1941 H61       -0.3404    -2.1958  2938.3151 H        896 DA      0.0000
   1942 H62       -1.9361    -2.0059  2937.5738 H        896 DA      0.0000
   1943 P         -3.8822     7.9388  2937.6084 P.3      895 DT      0.0000
   1944 OP1       -3.4578     9.3739  2937.6665 O.co2    895 DT      0.0000
   1945 OP2       -5.2661     7.7000  2937.0958 O.co2    895 DT      0.0000
   1946 O5'       -2.6208     7.1068  2936.9052 O.3      895 DT      0.0000
   1947 C5'       -1.6001     6.8537  2937.9176 C.3      895 DT      0.0000
   1948 C4'       -0.2904     6.6207  2937.2346 C.3      895 DT      0.0000
   1949 O4'        0.0125     5.2696  2937.0542 O.3      895 DT      0.0000
   1950 C3'       -0.1709     7.2883  2935.8734 C.3      895 DT      0.0000
   1951 O3'        1.1439     7.7915  2935.6061 O.3      895 DT      0.0000
   1952 C2'       -0.6179     6.1238  2934.9800 C.3      895 DT      0.0000
   1953 C1'        0.0987     4.9541  2935.6200 C.3      895 DT      0.0000
   1954 N1        -0.6276     3.6910  2935.3901 N.am     895 DT      0.0000
   1955 C2         0.1233     2.5350  2935.2684 C.2      895 DT      0.0000
   1956 O2         1.3543     2.5683  2935.3052 O.2      895 DT      0.0000
   1957 N3        -0.5428     1.3513  2935.1010 N.am     895 DT      0.0000
   1958 C4        -1.9006     1.2908  2935.0525 C.2      895 DT      0.0000
   1959 O4        -2.4323     0.1555  2934.8670 O.2      895 DT      0.0000
   1960 C5        -2.6547     2.4884  2935.2009 C.2      895 DT      0.0000
   1961 C7        -4.1637     2.4596  2935.1488 C.3      895 DT      0.0000
   1962 C6        -1.9895     3.6354  2935.3739 C.2      895 DT      0.0000
   1963 H5'       -1.5194     7.7159  2938.5796 H        895 DT      0.0000
   1964 H5''      -1.8717     5.9717  2938.4976 H        895 DT      0.0000
   1965 H4'        0.4862     7.0439  2937.8716 H        895 DT      0.0000
   1966 H3'       -0.8937     8.1010  2935.8013 H        895 DT      0.0000
   1967 H2'       -1.6994     5.9921  2935.0106 H        895 DT      0.0000
   1968 H2''      -0.2765     6.2711  2933.9554 H        895 DT      0.0000
   1969 H1'        1.1342     4.8873  2935.2861 H        895 DT      0.0000
   1970 H3        -0.0105     0.4977  2935.0109 H        895 DT      0.0000
   1971 H6        -2.5504     4.5490  2935.5053 H        895 DT      0.0000
   1972 H71       -4.4980     2.7163  2934.1436 H        895 DT      0.0000
   1973 H72       -4.5654     3.1810  2935.8604 H        895 DT      0.0000
   1974 H73       -4.5171     1.4609  2935.4053 H        895 DT      0.0000
   1975 P          1.3685     8.4271  2934.1162 P.3      894 DT      0.0000
   1976 OP1        1.6307     9.9271  2934.2641 O.co2    894 DT      0.0000
   1977 OP2        0.0420     8.2097  2933.4463 O.co2    894 DT      0.0000
   1978 O5'        2.5626     7.6845  2933.4641 O.3      894 DT      0.0000
   1979 C5'        3.6426     7.1303  2934.2155 C.3      894 DT      0.0000
   1980 C4'        4.1776     5.9515  2933.4675 C.3      894 DT      0.0000
   1981 O4'        3.3994     4.7867  2933.4105 O.3      894 DT      0.0000
   1982 C3'        4.6083     6.1738  2932.0015 C.3      894 DT      0.0000
   1983 O3'        5.7249     5.2851  2931.8977 O.3      894 DT      0.0000
   1984 C2'        3.3839     5.6523  2931.2377 C.3      894 DT      0.0000
   1985 C1'        3.2162     4.3618  2932.0134 C.3      894 DT      0.0000
   1986 N1         1.9040     3.7176  2931.9073 N.am     894 DT      0.0000
   1987 C2         1.9210     2.3163  2931.9066 C.2      894 DT      0.0000
   1988 O2         2.9837     1.6930  2931.9497 O.2      894 DT      0.0000
   1989 N3         0.7140     1.6807  2931.8532 N.am     894 DT      0.0000
   1990 C4        -0.4713     2.3515  2931.7935 C.2      894 DT      0.0000
   1991 O4        -1.5387     1.6701  2931.7311 O.2      894 DT      0.0000
   1992 C5        -0.4597     3.7730  2931.8017 C.2      894 DT      0.0000
   1993 C7        -1.7693     4.5311  2931.7403 C.3      894 DT      0.0000
   1994 C6         0.7233     4.3906  2931.8682 C.2      894 DT      0.0000
   1995 H5'        4.4277     7.8765  2934.3377 H        894 DT      0.0000
   1996 H5''       3.2834     6.8119  2935.1941 H        894 DT      0.0000
   1997 H4'        5.0875     5.6646  2933.9948 H        894 DT      0.0000
   1998 H3'        4.8547     7.2106  2931.7728 H        894 DT      0.0000
   1999 H2'        3.5938     5.4795  2930.1821 H        894 DT      0.0000
   2000 H2''       2.5243     6.3094  2931.3693 H        894 DT      0.0000
   2001 H1'        3.9993     3.6567  2931.7344 H        894 DT      0.0000
   2002 H3         0.6985     0.6708  2931.8581 H        894 DT      0.0000
   2003 H6         0.7424     5.4701  2931.8919 H        894 DT      0.0000
   2004 H71       -2.5973     3.8238  2931.6915 H        894 DT      0.0000
   2005 H72       -1.7806     5.1650  2930.8537 H        894 DT      0.0000
   2006 H73       -1.8727     5.1505  2932.6312 H        894 DT      0.0000
   2007 P          6.7708     5.2340  2930.7515 P.3      893 DC      0.0000
   2008 OP1        8.1740     5.2150  2931.3606 O.co2    893 DC      0.0000
   2009 OP2        6.5794     6.4956  2929.9696 O.co2    893 DC      0.0000
   2010 O5'        6.3588     3.8420  2930.0121 O.3      893 DC      0.0000
   2011 C5'        6.7316     2.6241  2930.7366 C.3      893 DC      0.0000
   2012 C4'        7.0691     1.5982  2929.6861 C.3      893 DC      0.0000
   2013 O4'        6.0002     0.7141  2929.4408 O.3      893 DC      0.0000
   2014 C3'        7.4623     2.1668  2928.3216 C.3      893 DC      0.0000
   2015 O3'        8.4348     1.3960  2927.6124 O.3      893 DC      0.0000
   2016 C2'        6.0910     2.2347  2927.6355 C.3      893 DC      0.0000
   2017 C1'        5.3878     0.9938  2928.1821 C.3      893 DC      0.0000
   2018 N1         3.9433     1.3024  2928.2999 N.am     893 DC      0.0000
   2019 C2         3.0637     0.2209  2928.3171 C.2      893 DC      0.0000
   2020 O2         3.4795    -0.9439  2928.2485 O.2      893 DC      0.0000
   2021 N3         1.7280     0.5014  2928.4204 N.2      893 DC      0.0000
   2022 C4         1.2609     1.7753  2928.4911 C.2      893 DC      0.0000
   2023 N4        -0.0513     1.9979  2928.5931 N.pl3    893 DC      0.0000
   2024 C5         2.1802     2.8610  2928.4660 C.2      893 DC      0.0000
   2025 C6         3.4921     2.5845  2928.3724 C.2      893 DC      0.0000
   2026 H5'        7.5965     2.8125  2931.3725 H        893 DC      0.0000
   2027 H5''       5.8928     2.2776  2931.3405 H        893 DC      0.0000
   2028 H4'        7.9090     1.0094  2930.0548 H        893 DC      0.0000
   2029 H3'        7.8421     3.1796  2928.4558 H        893 DC      0.0000
   2030 H2'        6.1901     2.1860  2926.5511 H        893 DC      0.0000
   2031 H2''       5.5586     3.1386  2927.9315 H        893 DC      0.0000
   2032 H1'        5.5343     0.1541  2927.5027 H        893 DC      0.0000
   2033 H5         1.8323     3.8820  2928.5208 H        893 DC      0.0000
   2034 H6         4.2035     3.3970  2928.3543 H        893 DC      0.0000
   2035 H41       -0.6954     1.2202  2928.6137 H        893 DC      0.0000
   2036 H42       -0.4002     2.9441  2928.6494 H        893 DC      0.0000
   2037 P          8.4817     1.1669  2925.9803 P.3      892 DA      0.0000
   2038 OP1        9.9009     0.8142  2925.5909 O.co2    892 DA      0.0000
   2039 OP2        7.9770     2.4456  2925.4103 O.co2    892 DA      0.0000
   2040 O5'        7.5808    -0.1406  2925.8148 O.3      892 DA      0.0000
   2041 C5'        8.1406    -1.4297  2926.2802 C.3      892 DA      0.0000
   2042 C4'        7.3994    -2.4242  2925.4030 C.3      892 DA      0.0000
   2043 O4'        5.9931    -2.3514  2925.6703 O.3      892 DA      0.0000
   2044 C3'        7.5243    -2.1243  2923.8986 C.3      892 DA      0.0000
   2045 O3'        7.1577    -3.2448  2923.1095 O.3      892 DA      0.0000
   2046 C2'        6.3848    -1.1058  2923.7111 C.3      892 DA      0.0000
   2047 C1'        5.3245    -1.9536  2924.4658 C.3      892 DA      0.0000
   2048 N9         4.1793    -1.0609  2924.6112 N.ar     892 DA      0.0000
   2049 C8         4.2169     0.3136  2924.6840 C.ar     892 DA      0.0000
   2050 N7         3.0327     0.8605  2924.7987 N.ar     892 DA      0.0000
   2051 C5         2.1589    -0.2415  2924.7923 C.ar     892 DA      0.0000
   2052 C6         0.7420    -0.3079  2924.8922 C.ar     892 DA      0.0000
   2053 N6        -0.0455     0.7646  2925.0151 N.pl3    892 DA      0.0000
   2054 N1         0.2338    -1.5715  2924.8571 N.ar     892 DA      0.0000
   2055 C2         1.0326    -2.6602  2924.7382 C.ar     892 DA      0.0000
   2056 N3         2.3656    -2.6706  2924.6467 N.ar     892 DA      0.0000
   2057 C4         2.8554    -1.4188  2924.6743 C.ar     892 DA      0.0000
   2058 H5'        9.2167    -1.4785  2926.1135 H        892 DA      0.0000
   2059 H5''       7.9060    -1.5942  2927.3319 H        892 DA      0.0000
   2060 H4'        7.7596    -3.4325  2925.6069 H        892 DA      0.0000
   2061 H3'        8.4999    -1.7198  2923.6289 H        892 DA      0.0000
   2062 H2'        6.5858    -0.1489  2924.1927 H        892 DA      0.0000
   2063 H2''       6.1259    -0.9806  2922.6597 H        892 DA      0.0000
   2064 H1'        5.0504    -2.8292  2923.8773 H        892 DA      0.0000
   2065 H8         5.1331     0.8845  2924.6500 H        892 DA      0.0000
   2066 H2         0.5395    -3.6207  2924.7150 H        892 DA      0.0000
   2067 H61        0.3605     1.6890  2925.0398 H        892 DA      0.0000
   2068 H62       -1.0467     0.6508  2925.0832 H        892 DA      0.0000
   2069 P          8.1214    -3.7845  2921.9686 P.3      891 DC      0.0000
   2070 OP1        9.0778    -4.6711  2922.7489 O.co2    891 DC      0.0000
   2071 OP2        8.7998    -2.7047  2921.2430 O.co2    891 DC      0.0000
   2072 O5'        7.0386    -4.5458  2920.9927 O.3      891 DC      0.0000
   2073 C5'        6.1521    -5.5222  2921.6617 C.3      891 DC      0.0000
   2074 C4'        4.7926    -5.4529  2921.0177 C.3      891 DC      0.0000
   2075 O4'        3.9018    -4.5454  2921.6549 O.3      891 DC      0.0000
   2076 C3'        4.8512    -5.0300  2919.5399 C.3      891 DC      0.0000
   2077 O3'        3.8464    -5.6254  2918.7286 O.3      891 DC      0.0000
   2078 C2'        4.5378    -3.5068  2919.7055 C.3      891 DC      0.0000
   2079 C1'        3.2747    -3.7847  2920.6011 C.3      891 DC      0.0000
   2080 N1         2.6402    -2.5146  2920.8390 N.am     891 DC      0.0000
   2081 C2         1.2916    -2.4992  2921.1562 C.2      891 DC      0.0000
   2082 O2         0.5025    -3.4404  2921.2966 O.2      891 DC      0.0000
   2083 N3         0.6930    -1.2860  2921.3544 N.2      891 DC      0.0000
   2084 C4         1.3824    -0.1104  2921.2384 C.2      891 DC      0.0000
   2085 N4         0.7549     1.0563  2921.4545 N.pl3    891 DC      0.0000
   2086 C5         2.7656    -0.1421  2920.9088 C.2      891 DC      0.0000
   2087 C6         3.3285    -1.3408  2920.7171 C.2      891 DC      0.0000
   2088 H5'        6.5609    -6.5265  2921.5503 H        891 DC      0.0000
   2089 H5''       6.0689    -5.2760  2922.7203 H        891 DC      0.0000
   2090 H4'        4.3484    -6.4472  2921.0645 H        891 DC      0.0000
   2091 H3'        5.8450    -5.1877  2919.1209 H        891 DC      0.0000
   2092 H2'        5.3235    -2.9560  2920.2226 H        891 DC      0.0000
   2093 H2''       4.2701    -3.0406  2918.7573 H        891 DC      0.0000
   2094 H1'        2.5863    -4.4307  2920.0562 H        891 DC      0.0000
   2095 H5         3.3403     0.7676  2920.8166 H        891 DC      0.0000
   2096 H6         4.3751    -1.3823  2920.4538 H        891 DC      0.0000
   2097 H41       -0.2260     1.0651  2921.6950 H        891 DC      0.0000
   2098 H42        1.2635     1.9254  2921.3765 H        891 DC      0.0000
@<TRIPOS>BOND
     1      9     31 1
     2     39     63 1
     3    101    126 1
     4    134    158 1
     5      1      2 1
     6      1      3 1
     7      1      4 1
     8      4      5 1
     9      5      6 1
    10      6      7 1
    11      6      8 1
    12      7     11 1
    13      8      9 1
    14      8     10 1
    15     10     11 1
    16     11     12 1
    17     12     13 am
    18     12     19 1
    19     13     14 2
    20     13     15 1
    21     15     16 2
    22     16     17 2
    23     16     18 2
    24     18     19 2
    25     31     32 1
    26     31     33 1
    27     31     34 1
    28     34     35 1
    29     35     36 1
    30     36     37 1
    31     36     38 1
    32     37     41 1
    33     38     39 1
    34     38     40 1
    35     40     41 1
    36     41     42 1
    37     42     43 ar
    38     42     51 ar
    39     43     44 ar
    40     44     45 ar
    41     45     46 ar
    42     45     51 ar
    43     46     47 1
    44     46     48 ar
    45     48     49 ar
    46     49     50 ar
    47     50     51 ar
    48     63     64 1
    49     63     65 1
    50     63     66 1
    51     66     67 1
    52     67     68 1
    53     68     69 1
    54     68     70 1
    55     69     73 1
    56     70     71 1
    57     70     72 1
    58     72     73 1
    59     73     74 1
    60     74     75 am
    61     74     81 1
    62     75     76 2
    63     75     77 1
    64     77     78 2
    65     78     79 2
    66     78     80 2
    67     80     81 2
    68     93     94 1
    69     93     95 1
    70     93     96 1
    71     96     97 1
    72     97     98 1
    73     98     99 1
    74     98    100 1
    75     99    103 1
    76    100    101 1
    77    100    102 1
    78    102    103 1
    79    103    104 1
    80    104    105 ar
    81    104    114 ar
    82    105    106 ar
    83    106    107 ar
    84    107    108 1
    85    107    114 ar
    86    108    109 2
    87    108    110 am
    88    110    111 1
    89    111    112 2
    90    111    113 2
    91    113    114 1
    92    126    127 1
    93    126    128 1
    94    126    129 1
    95    129    130 1
    96    130    131 1
    97    131    132 1
    98    131    133 1
    99    132    136 1
   100    133    134 1
   101    133    135 1
   102    135    136 1
   103    136    137 1
   104    137    138 am
   105    137    145 1
   106    138    139 2
   107    138    140 am
   108    140    141 am
   109    141    142 2
   110    141    143 1
   111    143    144 1
   112    143    145 2
   113    158    159 1
   114    158    160 1
   115    158    161 1
   116    161    162 1
   117    162    163 1
   118    163    164 1
   119    163    165 1
   120    164    168 1
   121    165    166 1
   122    165    167 1
   123    167    168 1
   124    168    169 1
   125    169    170 ar
   126    169    179 ar
   127    170    171 ar
   128    171    172 ar
   129    172    173 1
   130    172    179 ar
   131    173    174 2
   132    173    175 am
   133    175    176 1
   134    176    177 2
   135    176    178 2
   136    178    179 1
   137     20      5 1
   138     21      5 1
   139     22      6 1
   140     23      8 1
   141     24     10 1
   142     25     10 1
   143     26     11 1
   144     27     18 1
   145     28     19 1
   146     52     35 1
   147     53     35 1
   148     54     36 1
   149     55     38 1
   150     56     40 1
   151     57     40 1
   152     58     41 1
   153     59     43 1
   154     60     49 1
   155     82     67 1
   156     83     67 1
   157     84     68 1
   158     85     70 1
   159     86     72 1
   160     87     72 1
   161     88     73 1
   162     89     80 1
   163     90     81 1
   164    115     97 1
   165    116     97 1
   166    117     98 1
   167    118    100 1
   168    119    102 1
   169    120    102 1
   170    121    103 1
   171    122    105 1
   172    123    110 1
   173    146    130 1
   174    147    130 1
   175    148    131 1
   176    149    133 1
   177    150    135 1
   178    151    135 1
   179    152    136 1
   180    153    140 1
   181    154    145 1
   182    180    162 1
   183    181    162 1
   184    182    163 1
   185    183    165 1
   186    184    167 1
   187    185    167 1
   188    186    168 1
   189    187    170 1
   190    188    175 1
   191     29     17 1
   192     30     17 1
   193     91     79 1
   194     92     79 1
   195    124    112 1
   196    125    112 1
   197    189    177 1
   198    190    177 1
   199     61     47 1
   200     62     47 1
   201    155    144 1
   202    156    144 1
   203    157    144 1
   204     71    191 1
   205     93    805 1
   206    199    224 1
   207    232    256 1
   208    264    289 1
   209    297    321 1
   210    329    353 1
   211    361    385 1
   212    393    417 1
   213    425    447 1
   214    455    479 1
   215    517    542 1
   216    550    574 1
   217    582    607 1
   218    615    639 1
   219    647    671 1
   220    679    703 1
   221    711    735 1
   222    743    765 1
   223    773    797 1
   224    191    192 1
   225    191    193 1
   226    191    194 1
   227    194    195 1
   228    195    196 1
   229    196    197 1
   230    196    198 1
   231    197    201 1
   232    198    199 1
   233    198    200 1
   234    200    201 1
   235    201    202 1
   236    202    203 ar
   237    202    212 ar
   238    203    204 ar
   239    204    205 ar
   240    205    206 1
   241    205    212 ar
   242    206    207 2
   243    206    208 am
   244    208    209 1
   245    209    210 2
   246    209    211 2
   247    211    212 1
   248    224    225 1
   249    224    226 1
   250    224    227 1
   251    227    228 1
   252    228    229 1
   253    229    230 1
   254    229    231 1
   255    230    234 1
   256    231    232 1
   257    231    233 1
   258    233    234 1
   259    234    235 1
   260    235    236 am
   261    235    243 1
   262    236    237 2
   263    236    238 am
   264    238    239 am
   265    239    240 2
   266    239    241 1
   267    241    242 1
   268    241    243 2
   269    256    257 1
   270    256    258 1
   271    256    259 1
   272    259    260 1
   273    260    261 1
   274    261    262 1
   275    261    263 1
   276    262    266 1
   277    263    264 1
   278    263    265 1
   279    265    266 1
   280    266    267 1
   281    267    268 ar
   282    267    277 ar
   283    268    269 ar
   284    269    270 ar
   285    270    271 1
   286    270    277 ar
   287    271    272 2
   288    271    273 am
   289    273    274 1
   290    274    275 2
   291    274    276 2
   292    276    277 1
   293    289    290 1
   294    289    291 1
   295    289    292 1
   296    292    293 1
   297    293    294 1
   298    294    295 1
   299    294    296 1
   300    295    299 1
   301    296    297 1
   302    296    298 1
   303    298    299 1
   304    299    300 1
   305    300    301 ar
   306    300    309 ar
   307    301    302 ar
   308    302    303 ar
   309    303    304 ar
   310    303    309 ar
   311    304    305 1
   312    304    306 ar
   313    306    307 ar
   314    307    308 ar
   315    308    309 ar
   316    321    322 1
   317    321    323 1
   318    321    324 1
   319    324    325 1
   320    325    326 1
   321    326    327 1
   322    326    328 1
   323    327    331 1
   324    328    329 1
   325    328    330 1
   326    330    331 1
   327    331    332 1
   328    332    333 ar
   329    332    341 ar
   330    333    334 ar
   331    334    335 ar
   332    335    336 ar
   333    335    341 ar
   334    336    337 1
   335    336    338 ar
   336    338    339 ar
   337    339    340 ar
   338    340    341 ar
   339    353    354 1
   340    353    355 1
   341    353    356 1
   342    356    357 1
   343    357    358 1
   344    358    359 1
   345    358    360 1
   346    359    363 1
   347    360    361 1
   348    360    362 1
   349    362    363 1
   350    363    364 1
   351    364    365 am
   352    364    372 1
   353    365    366 2
   354    365    367 am
   355    367    368 am
   356    368    369 2
   357    368    370 1
   358    370    371 1
   359    370    372 2
   360    385    386 1
   361    385    387 1
   362    385    388 1
   363    388    389 1
   364    389    390 1
   365    390    391 1
   366    390    392 1
   367    391    395 1
   368    392    393 1
   369    392    394 1
   370    394    395 1
   371    395    396 1
   372    396    397 am
   373    396    404 1
   374    397    398 2
   375    397    399 am
   376    399    400 am
   377    400    401 2
   378    400    402 1
   379    402    403 1
   380    402    404 2
   381    417    418 1
   382    417    419 1
   383    417    420 1
   384    420    421 1
   385    421    422 1
   386    422    423 1
   387    422    424 1
   388    423    427 1
   389    424    425 1
   390    424    426 1
   391    426    427 1
   392    427    428 1
   393    428    429 am
   394    428    435 1
   395    429    430 2
   396    429    431 1
   397    431    432 2
   398    432    433 2
   399    432    434 2
   400    434    435 2
   401    447    448 1
   402    447    449 1
   403    447    450 1
   404    450    451 1
   405    451    452 1
   406    452    453 1
   407    452    454 1
   408    453    457 1
   409    454    455 1
   410    454    456 1
   411    456    457 1
   412    457    458 1
   413    458    459 ar
   414    458    467 ar
   415    459    460 ar
   416    460    461 ar
   417    461    462 ar
   418    461    467 ar
   419    462    463 1
   420    462    464 ar
   421    464    465 ar
   422    465    466 ar
   423    466    467 ar
   424    479    480 1
   425    479    481 1
   426    479    482 1
   427    482    483 1
   428    483    484 1
   429    484    485 1
   430    484    486 1
   431    485    489 1
   432    486    487 1
   433    486    488 1
   434    488    489 1
   435    489    490 1
   436    490    491 am
   437    490    497 1
   438    491    492 2
   439    491    493 1
   440    493    494 2
   441    494    495 2
   442    494    496 2
   443    496    497 2
   444    509    510 1
   445    509    511 1
   446    509    512 1
   447    512    513 1
   448    513    514 1
   449    514    515 1
   450    514    516 1
   451    515    519 1
   452    516    517 1
   453    516    518 1
   454    518    519 1
   455    519    520 1
   456    520    521 ar
   457    520    530 ar
   458    521    522 ar
   459    522    523 ar
   460    523    524 1
   461    523    530 ar
   462    524    525 2
   463    524    526 am
   464    526    527 1
   465    527    528 2
   466    527    529 2
   467    529    530 1
   468    542    543 1
   469    542    544 1
   470    542    545 1
   471    545    546 1
   472    546    547 1
   473    547    548 1
   474    547    549 1
   475    548    552 1
   476    549    550 1
   477    549    551 1
   478    551    552 1
   479    552    553 1
   480    553    554 am
   481    553    561 1
   482    554    555 2
   483    554    556 am
   484    556    557 am
   485    557    558 2
   486    557    559 1
   487    559    560 1
   488    559    561 2
   489    574    575 1
   490    574    576 1
   491    574    577 1
   492    577    578 1
   493    578    579 1
   494    579    580 1
   495    579    581 1
   496    580    584 1
   497    581    582 1
   498    581    583 1
   499    583    584 1
   500    584    585 1
   501    585    586 ar
   502    585    595 ar
   503    586    587 ar
   504    587    588 ar
   505    588    589 1
   506    588    595 ar
   507    589    590 2
   508    589    591 am
   509    591    592 1
   510    592    593 2
   511    592    594 2
   512    594    595 1
   513    607    608 1
   514    607    609 1
   515    607    610 1
   516    610    611 1
   517    611    612 1
   518    612    613 1
   519    612    614 1
   520    613    617 1
   521    614    615 1
   522    614    616 1
   523    616    617 1
   524    617    618 1
   525    618    619 ar
   526    618    627 ar
   527    619    620 ar
   528    620    621 ar
   529    621    622 ar
   530    621    627 ar
   531    622    623 1
   532    622    624 ar
   533    624    625 ar
   534    625    626 ar
   535    626    627 ar
   536    639    640 1
   537    639    641 1
   538    639    642 1
   539    642    643 1
   540    643    644 1
   541    644    645 1
   542    644    646 1
   543    645    649 1
   544    646    647 1
   545    646    648 1
   546    648    649 1
   547    649    650 1
   548    650    651 ar
   549    650    659 ar
   550    651    652 ar
   551    652    653 ar
   552    653    654 ar
   553    653    659 ar
   554    654    655 1
   555    654    656 ar
   556    656    657 ar
   557    657    658 ar
   558    658    659 ar
   559    671    672 1
   560    671    673 1
   561    671    674 1
   562    674    675 1
   563    675    676 1
   564    676    677 1
   565    676    678 1
   566    677    681 1
   567    678    679 1
   568    678    680 1
   569    680    681 1
   570    681    682 1
   571    682    683 am
   572    682    690 1
   573    683    684 2
   574    683    685 am
   575    685    686 am
   576    686    687 2
   577    686    688 1
   578    688    689 1
   579    688    690 2
   580    703    704 1
   581    703    705 1
   582    703    706 1
   583    706    707 1
   584    707    708 1
   585    708    709 1
   586    708    710 1
   587    709    713 1
   588    710    711 1
   589    710    712 1
   590    712    713 1
   591    713    714 1
   592    714    715 am
   593    714    722 1
   594    715    716 2
   595    715    717 am
   596    717    718 am
   597    718    719 2
   598    718    720 1
   599    720    721 1
   600    720    722 2
   601    735    736 1
   602    735    737 1
   603    735    738 1
   604    738    739 1
   605    739    740 1
   606    740    741 1
   607    740    742 1
   608    741    745 1
   609    742    743 1
   610    742    744 1
   611    744    745 1
   612    745    746 1
   613    746    747 am
   614    746    753 1
   615    747    748 2
   616    747    749 1
   617    749    750 2
   618    750    751 2
   619    750    752 2
   620    752    753 2
   621    765    766 1
   622    765    767 1
   623    765    768 1
   624    768    769 1
   625    769    770 1
   626    770    771 1
   627    770    772 1
   628    771    775 1
   629    772    773 1
   630    772    774 1
   631    774    775 1
   632    775    776 1
   633    776    777 ar
   634    776    785 ar
   635    777    778 ar
   636    778    779 ar
   637    779    780 ar
   638    779    785 ar
   639    780    781 1
   640    780    782 ar
   641    782    783 ar
   642    783    784 ar
   643    784    785 ar
   644    797    798 1
   645    797    799 1
   646    797    800 1
   647    800    801 1
   648    801    802 1
   649    802    803 1
   650    802    804 1
   651    803    807 1
   652    804    805 1
   653    804    806 1
   654    806    807 1
   655    807    808 1
   656    808    809 am
   657    808    815 1
   658    809    810 2
   659    809    811 1
   660    811    812 2
   661    812    813 2
   662    812    814 2
   663    814    815 2
   664    213    195 1
   665    214    195 1
   666    215    196 1
   667    216    198 1
   668    217    200 1
   669    218    200 1
   670    219    201 1
   671    220    203 1
   672    221    208 1
   673    244    228 1
   674    245    228 1
   675    246    229 1
   676    247    231 1
   677    248    233 1
   678    249    233 1
   679    250    234 1
   680    251    238 1
   681    252    243 1
   682    278    260 1
   683    279    260 1
   684    280    261 1
   685    281    263 1
   686    282    265 1
   687    283    265 1
   688    284    266 1
   689    285    268 1
   690    286    273 1
   691    310    293 1
   692    311    293 1
   693    312    294 1
   694    313    296 1
   695    314    298 1
   696    315    298 1
   697    316    299 1
   698    317    301 1
   699    318    307 1
   700    342    325 1
   701    343    325 1
   702    344    326 1
   703    345    328 1
   704    346    330 1
   705    347    330 1
   706    348    331 1
   707    349    333 1
   708    350    339 1
   709    373    357 1
   710    374    357 1
   711    375    358 1
   712    376    360 1
   713    377    362 1
   714    378    362 1
   715    379    363 1
   716    380    367 1
   717    381    372 1
   718    405    389 1
   719    406    389 1
   720    407    390 1
   721    408    392 1
   722    409    394 1
   723    410    394 1
   724    411    395 1
   725    412    399 1
   726    413    404 1
   727    436    421 1
   728    437    421 1
   729    438    422 1
   730    439    424 1
   731    440    426 1
   732    441    426 1
   733    442    427 1
   734    443    434 1
   735    444    435 1
   736    468    451 1
   737    469    451 1
   738    470    452 1
   739    471    454 1
   740    472    456 1
   741    473    456 1
   742    474    457 1
   743    475    459 1
   744    476    465 1
   745    498    483 1
   746    499    483 1
   747    500    484 1
   748    501    486 1
   749    502    488 1
   750    503    488 1
   751    504    489 1
   752    505    496 1
   753    506    497 1
   754    531    513 1
   755    532    513 1
   756    533    514 1
   757    534    516 1
   758    535    518 1
   759    536    518 1
   760    537    519 1
   761    538    521 1
   762    539    526 1
   763    562    546 1
   764    563    546 1
   765    564    547 1
   766    565    549 1
   767    566    551 1
   768    567    551 1
   769    568    552 1
   770    569    556 1
   771    570    561 1
   772    596    578 1
   773    597    578 1
   774    598    579 1
   775    599    581 1
   776    600    583 1
   777    601    583 1
   778    602    584 1
   779    603    586 1
   780    604    591 1
   781    628    611 1
   782    629    611 1
   783    630    612 1
   784    631    614 1
   785    632    616 1
   786    633    616 1
   787    634    617 1
   788    635    619 1
   789    636    625 1
   790    660    643 1
   791    661    643 1
   792    662    644 1
   793    663    646 1
   794    664    648 1
   795    665    648 1
   796    666    649 1
   797    667    651 1
   798    668    657 1
   799    691    675 1
   800    692    675 1
   801    693    676 1
   802    694    678 1
   803    695    680 1
   804    696    680 1
   805    697    681 1
   806    698    685 1
   807    699    690 1
   808    723    707 1
   809    724    707 1
   810    725    708 1
   811    726    710 1
   812    727    712 1
   813    728    712 1
   814    729    713 1
   815    730    717 1
   816    731    722 1
   817    754    739 1
   818    755    739 1
   819    756    740 1
   820    757    742 1
   821    758    744 1
   822    759    744 1
   823    760    745 1
   824    761    752 1
   825    762    753 1
   826    786    769 1
   827    787    769 1
   828    788    770 1
   829    789    772 1
   830    790    774 1
   831    791    774 1
   832    792    775 1
   833    793    777 1
   834    794    783 1
   835    816    801 1
   836    817    801 1
   837    818    802 1
   838    819    804 1
   839    820    806 1
   840    821    806 1
   841    822    807 1
   842    823    814 1
   843    824    815 1
   844    222    210 1
   845    223    210 1
   846    287    275 1
   847    288    275 1
   848    445    433 1
   849    446    433 1
   850    507    495 1
   851    508    495 1
   852    540    528 1
   853    541    528 1
   854    605    593 1
   855    606    593 1
   856    763    751 1
   857    764    751 1
   858    825    813 1
   859    826    813 1
   860    319    305 1
   861    320    305 1
   862    351    337 1
   863    352    337 1
   864    477    463 1
   865    478    463 1
   866    637    623 1
   867    638    623 1
   868    669    655 1
   869    670    655 1
   870    795    781 1
   871    796    781 1
   872    253    242 1
   873    254    242 1
   874    255    242 1
   875    382    371 1
   876    383    371 1
   877    384    371 1
   878    414    403 1
   879    415    403 1
   880    416    403 1
   881    571    560 1
   882    572    560 1
   883    573    560 1
   884    700    689 1
   885    701    689 1
   886    702    689 1
   887    732    721 1
   888    733    721 1
   889    734    721 1
   890    487    827 1
   891    509   1441 1
   892    835    860 1
   893    868    892 1
   894    900    925 1
   895    933    957 1
   896    965    989 1
   897    997   1021 1
   898   1029   1053 1
   899   1061   1083 1
   900   1091   1115 1
   901   1153   1178 1
   902   1186   1210 1
   903   1218   1243 1
   904   1251   1275 1
   905   1283   1307 1
   906   1315   1339 1
   907   1347   1371 1
   908   1379   1401 1
   909   1409   1433 1
   910    827    828 1
   911    827    829 1
   912    827    830 1
   913    830    831 1
   914    831    832 1
   915    832    833 1
   916    832    834 1
   917    833    837 1
   918    834    835 1
   919    834    836 1
   920    836    837 1
   921    837    838 1
   922    838    839 ar
   923    838    848 ar
   924    839    840 ar
   925    840    841 ar
   926    841    842 1
   927    841    848 ar
   928    842    843 2
   929    842    844 am
   930    844    845 1
   931    845    846 2
   932    845    847 2
   933    847    848 1
   934    860    861 1
   935    860    862 1
   936    860    863 1
   937    863    864 1
   938    864    865 1
   939    865    866 1
   940    865    867 1
   941    866    870 1
   942    867    868 1
   943    867    869 1
   944    869    870 1
   945    870    871 1
   946    871    872 am
   947    871    879 1
   948    872    873 2
   949    872    874 am
   950    874    875 am
   951    875    876 2
   952    875    877 1
   953    877    878 1
   954    877    879 2
   955    892    893 1
   956    892    894 1
   957    892    895 1
   958    895    896 1
   959    896    897 1
   960    897    898 1
   961    897    899 1
   962    898    902 1
   963    899    900 1
   964    899    901 1
   965    901    902 1
   966    902    903 1
   967    903    904 ar
   968    903    913 ar
   969    904    905 ar
   970    905    906 ar
   971    906    907 1
   972    906    913 ar
   973    907    908 2
   974    907    909 am
   975    909    910 1
   976    910    911 2
   977    910    912 2
   978    912    913 1
   979    925    926 1
   980    925    927 1
   981    925    928 1
   982    928    929 1
   983    929    930 1
   984    930    931 1
   985    930    932 1
   986    931    935 1
   987    932    933 1
   988    932    934 1
   989    934    935 1
   990    935    936 1
   991    936    937 ar
   992    936    945 ar
   993    937    938 ar
   994    938    939 ar
   995    939    940 ar
   996    939    945 ar
   997    940    941 1
   998    940    942 ar
   999    942    943 ar
  1000    943    944 ar
  1001    944    945 ar
  1002    957    958 1
  1003    957    959 1
  1004    957    960 1
  1005    960    961 1
  1006    961    962 1
  1007    962    963 1
  1008    962    964 1
  1009    963    967 1
  1010    964    965 1
  1011    964    966 1
  1012    966    967 1
  1013    967    968 1
  1014    968    969 ar
  1015    968    977 ar
  1016    969    970 ar
  1017    970    971 ar
  1018    971    972 ar
  1019    971    977 ar
  1020    972    973 1
  1021    972    974 ar
  1022    974    975 ar
  1023    975    976 ar
  1024    976    977 ar
  1025    989    990 1
  1026    989    991 1
  1027    989    992 1
  1028    992    993 1
  1029    993    994 1
  1030    994    995 1
  1031    994    996 1
  1032    995    999 1
  1033    996    997 1
  1034    996    998 1
  1035    998    999 1
  1036    999   1000 1
  1037   1000   1001 am
  1038   1000   1008 1
  1039   1001   1002 2
  1040   1001   1003 am
  1041   1003   1004 am
  1042   1004   1005 2
  1043   1004   1006 1
  1044   1006   1007 1
  1045   1006   1008 2
  1046   1021   1022 1
  1047   1021   1023 1
  1048   1021   1024 1
  1049   1024   1025 1
  1050   1025   1026 1
  1051   1026   1027 1
  1052   1026   1028 1
  1053   1027   1031 1
  1054   1028   1029 1
  1055   1028   1030 1
  1056   1030   1031 1
  1057   1031   1032 1
  1058   1032   1033 am
  1059   1032   1040 1
  1060   1033   1034 2
  1061   1033   1035 am
  1062   1035   1036 am
  1063   1036   1037 2
  1064   1036   1038 1
  1065   1038   1039 1
  1066   1038   1040 2
  1067   1053   1054 1
  1068   1053   1055 1
  1069   1053   1056 1
  1070   1056   1057 1
  1071   1057   1058 1
  1072   1058   1059 1
  1073   1058   1060 1
  1074   1059   1063 1
  1075   1060   1061 1
  1076   1060   1062 1
  1077   1062   1063 1
  1078   1063   1064 1
  1079   1064   1065 am
  1080   1064   1071 1
  1081   1065   1066 2
  1082   1065   1067 1
  1083   1067   1068 2
  1084   1068   1069 2
  1085   1068   1070 2
  1086   1070   1071 2
  1087   1083   1084 1
  1088   1083   1085 1
  1089   1083   1086 1
  1090   1086   1087 1
  1091   1087   1088 1
  1092   1088   1089 1
  1093   1088   1090 1
  1094   1089   1093 1
  1095   1090   1091 1
  1096   1090   1092 1
  1097   1092   1093 1
  1098   1093   1094 1
  1099   1094   1095 ar
  1100   1094   1103 ar
  1101   1095   1096 ar
  1102   1096   1097 ar
  1103   1097   1098 ar
  1104   1097   1103 ar
  1105   1098   1099 1
  1106   1098   1100 ar
  1107   1100   1101 ar
  1108   1101   1102 ar
  1109   1102   1103 ar
  1110   1115   1116 1
  1111   1115   1117 1
  1112   1115   1118 1
  1113   1118   1119 1
  1114   1119   1120 1
  1115   1120   1121 1
  1116   1120   1122 1
  1117   1121   1125 1
  1118   1122   1123 1
  1119   1122   1124 1
  1120   1124   1125 1
  1121   1125   1126 1
  1122   1126   1127 am
  1123   1126   1133 1
  1124   1127   1128 2
  1125   1127   1129 1
  1126   1129   1130 2
  1127   1130   1131 2
  1128   1130   1132 2
  1129   1132   1133 2
  1130   1145   1146 1
  1131   1145   1147 1
  1132   1145   1148 1
  1133   1148   1149 1
  1134   1149   1150 1
  1135   1150   1151 1
  1136   1150   1152 1
  1137   1151   1155 1
  1138   1152   1153 1
  1139   1152   1154 1
  1140   1154   1155 1
  1141   1155   1156 1
  1142   1156   1157 ar
  1143   1156   1166 ar
  1144   1157   1158 ar
  1145   1158   1159 ar
  1146   1159   1160 1
  1147   1159   1166 ar
  1148   1160   1161 2
  1149   1160   1162 am
  1150   1162   1163 1
  1151   1163   1164 2
  1152   1163   1165 2
  1153   1165   1166 1
  1154   1178   1179 1
  1155   1178   1180 1
  1156   1178   1181 1
  1157   1181   1182 1
  1158   1182   1183 1
  1159   1183   1184 1
  1160   1183   1185 1
  1161   1184   1188 1
  1162   1185   1186 1
  1163   1185   1187 1
  1164   1187   1188 1
  1165   1188   1189 1
  1166   1189   1190 am
  1167   1189   1197 1
  1168   1190   1191 2
  1169   1190   1192 am
  1170   1192   1193 am
  1171   1193   1194 2
  1172   1193   1195 1
  1173   1195   1196 1
  1174   1195   1197 2
  1175   1210   1211 1
  1176   1210   1212 1
  1177   1210   1213 1
  1178   1213   1214 1
  1179   1214   1215 1
  1180   1215   1216 1
  1181   1215   1217 1
  1182   1216   1220 1
  1183   1217   1218 1
  1184   1217   1219 1
  1185   1219   1220 1
  1186   1220   1221 1
  1187   1221   1222 ar
  1188   1221   1231 ar
  1189   1222   1223 ar
  1190   1223   1224 ar
  1191   1224   1225 1
  1192   1224   1231 ar
  1193   1225   1226 2
  1194   1225   1227 am
  1195   1227   1228 1
  1196   1228   1229 2
  1197   1228   1230 2
  1198   1230   1231 1
  1199   1243   1244 1
  1200   1243   1245 1
  1201   1243   1246 1
  1202   1246   1247 1
  1203   1247   1248 1
  1204   1248   1249 1
  1205   1248   1250 1
  1206   1249   1253 1
  1207   1250   1251 1
  1208   1250   1252 1
  1209   1252   1253 1
  1210   1253   1254 1
  1211   1254   1255 ar
  1212   1254   1263 ar
  1213   1255   1256 ar
  1214   1256   1257 ar
  1215   1257   1258 ar
  1216   1257   1263 ar
  1217   1258   1259 1
  1218   1258   1260 ar
  1219   1260   1261 ar
  1220   1261   1262 ar
  1221   1262   1263 ar
  1222   1275   1276 1
  1223   1275   1277 1
  1224   1275   1278 1
  1225   1278   1279 1
  1226   1279   1280 1
  1227   1280   1281 1
  1228   1280   1282 1
  1229   1281   1285 1
  1230   1282   1283 1
  1231   1282   1284 1
  1232   1284   1285 1
  1233   1285   1286 1
  1234   1286   1287 ar
  1235   1286   1295 ar
  1236   1287   1288 ar
  1237   1288   1289 ar
  1238   1289   1290 ar
  1239   1289   1295 ar
  1240   1290   1291 1
  1241   1290   1292 ar
  1242   1292   1293 ar
  1243   1293   1294 ar
  1244   1294   1295 ar
  1245   1307   1308 1
  1246   1307   1309 1
  1247   1307   1310 1
  1248   1310   1311 1
  1249   1311   1312 1
  1250   1312   1313 1
  1251   1312   1314 1
  1252   1313   1317 1
  1253   1314   1315 1
  1254   1314   1316 1
  1255   1316   1317 1
  1256   1317   1318 1
  1257   1318   1319 am
  1258   1318   1326 1
  1259   1319   1320 2
  1260   1319   1321 am
  1261   1321   1322 am
  1262   1322   1323 2
  1263   1322   1324 1
  1264   1324   1325 1
  1265   1324   1326 2
  1266   1339   1340 1
  1267   1339   1341 1
  1268   1339   1342 1
  1269   1342   1343 1
  1270   1343   1344 1
  1271   1344   1345 1
  1272   1344   1346 1
  1273   1345   1349 1
  1274   1346   1347 1
  1275   1346   1348 1
  1276   1348   1349 1
  1277   1349   1350 1
  1278   1350   1351 am
  1279   1350   1358 1
  1280   1351   1352 2
  1281   1351   1353 am
  1282   1353   1354 am
  1283   1354   1355 2
  1284   1354   1356 1
  1285   1356   1357 1
  1286   1356   1358 2
  1287   1371   1372 1
  1288   1371   1373 1
  1289   1371   1374 1
  1290   1374   1375 1
  1291   1375   1376 1
  1292   1376   1377 1
  1293   1376   1378 1
  1294   1377   1381 1
  1295   1378   1379 1
  1296   1378   1380 1
  1297   1380   1381 1
  1298   1381   1382 1
  1299   1382   1383 am
  1300   1382   1389 1
  1301   1383   1384 2
  1302   1383   1385 1
  1303   1385   1386 2
  1304   1386   1387 2
  1305   1386   1388 2
  1306   1388   1389 2
  1307   1401   1402 1
  1308   1401   1403 1
  1309   1401   1404 1
  1310   1404   1405 1
  1311   1405   1406 1
  1312   1406   1407 1
  1313   1406   1408 1
  1314   1407   1411 1
  1315   1408   1409 1
  1316   1408   1410 1
  1317   1410   1411 1
  1318   1411   1412 1
  1319   1412   1413 ar
  1320   1412   1421 ar
  1321   1413   1414 ar
  1322   1414   1415 ar
  1323   1415   1416 ar
  1324   1415   1421 ar
  1325   1416   1417 1
  1326   1416   1418 ar
  1327   1418   1419 ar
  1328   1419   1420 ar
  1329   1420   1421 ar
  1330   1433   1434 1
  1331   1433   1435 1
  1332   1433   1436 1
  1333   1436   1437 1
  1334   1437   1438 1
  1335   1438   1439 1
  1336   1438   1440 1
  1337   1439   1443 1
  1338   1440   1441 1
  1339   1440   1442 1
  1340   1442   1443 1
  1341   1443   1444 1
  1342   1444   1445 am
  1343   1444   1451 1
  1344   1445   1446 2
  1345   1445   1447 1
  1346   1447   1448 2
  1347   1448   1449 2
  1348   1448   1450 2
  1349   1450   1451 2
  1350    849    831 1
  1351    850    831 1
  1352    851    832 1
  1353    852    834 1
  1354    853    836 1
  1355    854    836 1
  1356    855    837 1
  1357    856    839 1
  1358    857    844 1
  1359    880    864 1
  1360    881    864 1
  1361    882    865 1
  1362    883    867 1
  1363    884    869 1
  1364    885    869 1
  1365    886    870 1
  1366    887    874 1
  1367    888    879 1
  1368    914    896 1
  1369    915    896 1
  1370    916    897 1
  1371    917    899 1
  1372    918    901 1
  1373    919    901 1
  1374    920    902 1
  1375    921    904 1
  1376    922    909 1
  1377    946    929 1
  1378    947    929 1
  1379    948    930 1
  1380    949    932 1
  1381    950    934 1
  1382    951    934 1
  1383    952    935 1
  1384    953    937 1
  1385    954    943 1
  1386    978    961 1
  1387    979    961 1
  1388    980    962 1
  1389    981    964 1
  1390    982    966 1
  1391    983    966 1
  1392    984    967 1
  1393    985    969 1
  1394    986    975 1
  1395   1009    993 1
  1396   1010    993 1
  1397   1011    994 1
  1398   1012    996 1
  1399   1013    998 1
  1400   1014    998 1
  1401   1015    999 1
  1402   1016   1003 1
  1403   1017   1008 1
  1404   1041   1025 1
  1405   1042   1025 1
  1406   1043   1026 1
  1407   1044   1028 1
  1408   1045   1030 1
  1409   1046   1030 1
  1410   1047   1031 1
  1411   1048   1035 1
  1412   1049   1040 1
  1413   1072   1057 1
  1414   1073   1057 1
  1415   1074   1058 1
  1416   1075   1060 1
  1417   1076   1062 1
  1418   1077   1062 1
  1419   1078   1063 1
  1420   1079   1070 1
  1421   1080   1071 1
  1422   1104   1087 1
  1423   1105   1087 1
  1424   1106   1088 1
  1425   1107   1090 1
  1426   1108   1092 1
  1427   1109   1092 1
  1428   1110   1093 1
  1429   1111   1095 1
  1430   1112   1101 1
  1431   1134   1119 1
  1432   1135   1119 1
  1433   1136   1120 1
  1434   1137   1122 1
  1435   1138   1124 1
  1436   1139   1124 1
  1437   1140   1125 1
  1438   1141   1132 1
  1439   1142   1133 1
  1440   1167   1149 1
  1441   1168   1149 1
  1442   1169   1150 1
  1443   1170   1152 1
  1444   1171   1154 1
  1445   1172   1154 1
  1446   1173   1155 1
  1447   1174   1157 1
  1448   1175   1162 1
  1449   1198   1182 1
  1450   1199   1182 1
  1451   1200   1183 1
  1452   1201   1185 1
  1453   1202   1187 1
  1454   1203   1187 1
  1455   1204   1188 1
  1456   1205   1192 1
  1457   1206   1197 1
  1458   1232   1214 1
  1459   1233   1214 1
  1460   1234   1215 1
  1461   1235   1217 1
  1462   1236   1219 1
  1463   1237   1219 1
  1464   1238   1220 1
  1465   1239   1222 1
  1466   1240   1227 1
  1467   1264   1247 1
  1468   1265   1247 1
  1469   1266   1248 1
  1470   1267   1250 1
  1471   1268   1252 1
  1472   1269   1252 1
  1473   1270   1253 1
  1474   1271   1255 1
  1475   1272   1261 1
  1476   1296   1279 1
  1477   1297   1279 1
  1478   1298   1280 1
  1479   1299   1282 1
  1480   1300   1284 1
  1481   1301   1284 1
  1482   1302   1285 1
  1483   1303   1287 1
  1484   1304   1293 1
  1485   1327   1311 1
  1486   1328   1311 1
  1487   1329   1312 1
  1488   1330   1314 1
  1489   1331   1316 1
  1490   1332   1316 1
  1491   1333   1317 1
  1492   1334   1321 1
  1493   1335   1326 1
  1494   1359   1343 1
  1495   1360   1343 1
  1496   1361   1344 1
  1497   1362   1346 1
  1498   1363   1348 1
  1499   1364   1348 1
  1500   1365   1349 1
  1501   1366   1353 1
  1502   1367   1358 1
  1503   1390   1375 1
  1504   1391   1375 1
  1505   1392   1376 1
  1506   1393   1378 1
  1507   1394   1380 1
  1508   1395   1380 1
  1509   1396   1381 1
  1510   1397   1388 1
  1511   1398   1389 1
  1512   1422   1405 1
  1513   1423   1405 1
  1514   1424   1406 1
  1515   1425   1408 1
  1516   1426   1410 1
  1517   1427   1410 1
  1518   1428   1411 1
  1519   1429   1413 1
  1520   1430   1419 1
  1521   1452   1437 1
  1522   1453   1437 1
  1523   1454   1438 1
  1524   1455   1440 1
  1525   1456   1442 1
  1526   1457   1442 1
  1527   1458   1443 1
  1528   1459   1450 1
  1529   1460   1451 1
  1530    858    846 1
  1531    859    846 1
  1532    923    911 1
  1533    924    911 1
  1534   1081   1069 1
  1535   1082   1069 1
  1536   1143   1131 1
  1537   1144   1131 1
  1538   1176   1164 1
  1539   1177   1164 1
  1540   1241   1229 1
  1541   1242   1229 1
  1542   1399   1387 1
  1543   1400   1387 1
  1544   1461   1449 1
  1545   1462   1449 1
  1546    955    941 1
  1547    956    941 1
  1548    987    973 1
  1549    988    973 1
  1550   1113   1099 1
  1551   1114   1099 1
  1552   1273   1259 1
  1553   1274   1259 1
  1554   1305   1291 1
  1555   1306   1291 1
  1556   1431   1417 1
  1557   1432   1417 1
  1558    889    878 1
  1559    890    878 1
  1560    891    878 1
  1561   1018   1007 1
  1562   1019   1007 1
  1563   1020   1007 1
  1564   1050   1039 1
  1565   1051   1039 1
  1566   1052   1039 1
  1567   1207   1196 1
  1568   1208   1196 1
  1569   1209   1196 1
  1570   1336   1325 1
  1571   1337   1325 1
  1572   1338   1325 1
  1573   1368   1357 1
  1574   1369   1357 1
  1575   1370   1357 1
  1576   1123   1463 1
  1577   1145   2077 1
  1578   1471   1496 1
  1579   1504   1528 1
  1580   1536   1561 1
  1581   1569   1593 1
  1582   1601   1625 1
  1583   1633   1657 1
  1584   1665   1689 1
  1585   1697   1719 1
  1586   1727   1751 1
  1587   1789   1814 1
  1588   1822   1846 1
  1589   1854   1879 1
  1590   1887   1911 1
  1591   1919   1943 1
  1592   1951   1975 1
  1593   1983   2007 1
  1594   2015   2037 1
  1595   2045   2069 1
  1596   1463   1464 1
  1597   1463   1465 1
  1598   1463   1466 1
  1599   1466   1467 1
  1600   1467   1468 1
  1601   1468   1469 1
  1602   1468   1470 1
  1603   1469   1473 1
  1604   1470   1471 1
  1605   1470   1472 1
  1606   1472   1473 1
  1607   1473   1474 1
  1608   1474   1475 ar
  1609   1474   1484 ar
  1610   1475   1476 ar
  1611   1476   1477 ar
  1612   1477   1478 1
  1613   1477   1484 ar
  1614   1478   1479 2
  1615   1478   1480 am
  1616   1480   1481 1
  1617   1481   1482 2
  1618   1481   1483 2
  1619   1483   1484 1
  1620   1496   1497 1
  1621   1496   1498 1
  1622   1496   1499 1
  1623   1499   1500 1
  1624   1500   1501 1
  1625   1501   1502 1
  1626   1501   1503 1
  1627   1502   1506 1
  1628   1503   1504 1
  1629   1503   1505 1
  1630   1505   1506 1
  1631   1506   1507 1
  1632   1507   1508 am
  1633   1507   1515 1
  1634   1508   1509 2
  1635   1508   1510 am
  1636   1510   1511 am
  1637   1511   1512 2
  1638   1511   1513 1
  1639   1513   1514 1
  1640   1513   1515 2
  1641   1528   1529 1
  1642   1528   1530 1
  1643   1528   1531 1
  1644   1531   1532 1
  1645   1532   1533 1
  1646   1533   1534 1
  1647   1533   1535 1
  1648   1534   1538 1
  1649   1535   1536 1
  1650   1535   1537 1
  1651   1537   1538 1
  1652   1538   1539 1
  1653   1539   1540 ar
  1654   1539   1549 ar
  1655   1540   1541 ar
  1656   1541   1542 ar
  1657   1542   1543 1
  1658   1542   1549 ar
  1659   1543   1544 2
  1660   1543   1545 am
  1661   1545   1546 1
  1662   1546   1547 2
  1663   1546   1548 2
  1664   1548   1549 1
  1665   1561   1562 1
  1666   1561   1563 1
  1667   1561   1564 1
  1668   1564   1565 1
  1669   1565   1566 1
  1670   1566   1567 1
  1671   1566   1568 1
  1672   1567   1571 1
  1673   1568   1569 1
  1674   1568   1570 1
  1675   1570   1571 1
  1676   1571   1572 1
  1677   1572   1573 ar
  1678   1572   1581 ar
  1679   1573   1574 ar
  1680   1574   1575 ar
  1681   1575   1576 ar
  1682   1575   1581 ar
  1683   1576   1577 1
  1684   1576   1578 ar
  1685   1578   1579 ar
  1686   1579   1580 ar
  1687   1580   1581 ar
  1688   1593   1594 1
  1689   1593   1595 1
  1690   1593   1596 1
  1691   1596   1597 1
  1692   1597   1598 1
  1693   1598   1599 1
  1694   1598   1600 1
  1695   1599   1603 1
  1696   1600   1601 1
  1697   1600   1602 1
  1698   1602   1603 1
  1699   1603   1604 1
  1700   1604   1605 ar
  1701   1604   1613 ar
  1702   1605   1606 ar
  1703   1606   1607 ar
  1704   1607   1608 ar
  1705   1607   1613 ar
  1706   1608   1609 1
  1707   1608   1610 ar
  1708   1610   1611 ar
  1709   1611   1612 ar
  1710   1612   1613 ar
  1711   1625   1626 1
  1712   1625   1627 1
  1713   1625   1628 1
  1714   1628   1629 1
  1715   1629   1630 1
  1716   1630   1631 1
  1717   1630   1632 1
  1718   1631   1635 1
  1719   1632   1633 1
  1720   1632   1634 1
  1721   1634   1635 1
  1722   1635   1636 1
  1723   1636   1637 am
  1724   1636   1644 1
  1725   1637   1638 2
  1726   1637   1639 am
  1727   1639   1640 am
  1728   1640   1641 2
  1729   1640   1642 1
  1730   1642   1643 1
  1731   1642   1644 2
  1732   1657   1658 1
  1733   1657   1659 1
  1734   1657   1660 1
  1735   1660   1661 1
  1736   1661   1662 1
  1737   1662   1663 1
  1738   1662   1664 1
  1739   1663   1667 1
  1740   1664   1665 1
  1741   1664   1666 1
  1742   1666   1667 1
  1743   1667   1668 1
  1744   1668   1669 am
  1745   1668   1676 1
  1746   1669   1670 2
  1747   1669   1671 am
  1748   1671   1672 am
  1749   1672   1673 2
  1750   1672   1674 1
  1751   1674   1675 1
  1752   1674   1676 2
  1753   1689   1690 1
  1754   1689   1691 1
  1755   1689   1692 1
  1756   1692   1693 1
  1757   1693   1694 1
  1758   1694   1695 1
  1759   1694   1696 1
  1760   1695   1699 1
  1761   1696   1697 1
  1762   1696   1698 1
  1763   1698   1699 1
  1764   1699   1700 1
  1765   1700   1701 am
  1766   1700   1707 1
  1767   1701   1702 2
  1768   1701   1703 1
  1769   1703   1704 2
  1770   1704   1705 2
  1771   1704   1706 2
  1772   1706   1707 2
  1773   1719   1720 1
  1774   1719   1721 1
  1775   1719   1722 1
  1776   1722   1723 1
  1777   1723   1724 1
  1778   1724   1725 1
  1779   1724   1726 1
  1780   1725   1729 1
  1781   1726   1727 1
  1782   1726   1728 1
  1783   1728   1729 1
  1784   1729   1730 1
  1785   1730   1731 ar
  1786   1730   1739 ar
  1787   1731   1732 ar
  1788   1732   1733 ar
  1789   1733   1734 ar
  1790   1733   1739 ar
  1791   1734   1735 1
  1792   1734   1736 ar
  1793   1736   1737 ar
  1794   1737   1738 ar
  1795   1738   1739 ar
  1796   1751   1752 1
  1797   1751   1753 1
  1798   1751   1754 1
  1799   1754   1755 1
  1800   1755   1756 1
  1801   1756   1757 1
  1802   1756   1758 1
  1803   1757   1761 1
  1804   1758   1759 1
  1805   1758   1760 1
  1806   1760   1761 1
  1807   1761   1762 1
  1808   1762   1763 am
  1809   1762   1769 1
  1810   1763   1764 2
  1811   1763   1765 1
  1812   1765   1766 2
  1813   1766   1767 2
  1814   1766   1768 2
  1815   1768   1769 2
  1816   1781   1782 1
  1817   1781   1783 1
  1818   1781   1784 1
  1819   1784   1785 1
  1820   1785   1786 1
  1821   1786   1787 1
  1822   1786   1788 1
  1823   1787   1791 1
  1824   1788   1789 1
  1825   1788   1790 1
  1826   1790   1791 1
  1827   1791   1792 1
  1828   1792   1793 ar
  1829   1792   1802 ar
  1830   1793   1794 ar
  1831   1794   1795 ar
  1832   1795   1796 1
  1833   1795   1802 ar
  1834   1796   1797 2
  1835   1796   1798 am
  1836   1798   1799 1
  1837   1799   1800 2
  1838   1799   1801 2
  1839   1801   1802 1
  1840   1814   1815 1
  1841   1814   1816 1
  1842   1814   1817 1
  1843   1817   1818 1
  1844   1818   1819 1
  1845   1819   1820 1
  1846   1819   1821 1
  1847   1820   1824 1
  1848   1821   1822 1
  1849   1821   1823 1
  1850   1823   1824 1
  1851   1824   1825 1
  1852   1825   1826 am
  1853   1825   1833 1
  1854   1826   1827 2
  1855   1826   1828 am
  1856   1828   1829 am
  1857   1829   1830 2
  1858   1829   1831 1
  1859   1831   1832 1
  1860   1831   1833 2
  1861   1846   1847 1
  1862   1846   1848 1
  1863   1846   1849 1
  1864   1849   1850 1
  1865   1850   1851 1
  1866   1851   1852 1
  1867   1851   1853 1
  1868   1852   1856 1
  1869   1853   1854 1
  1870   1853   1855 1
  1871   1855   1856 1
  1872   1856   1857 1
  1873   1857   1858 ar
  1874   1857   1867 ar
  1875   1858   1859 ar
  1876   1859   1860 ar
  1877   1860   1861 1
  1878   1860   1867 ar
  1879   1861   1862 2
  1880   1861   1863 am
  1881   1863   1864 1
  1882   1864   1865 2
  1883   1864   1866 2
  1884   1866   1867 1
  1885   1879   1880 1
  1886   1879   1881 1
  1887   1879   1882 1
  1888   1882   1883 1
  1889   1883   1884 1
  1890   1884   1885 1
  1891   1884   1886 1
  1892   1885   1889 1
  1893   1886   1887 1
  1894   1886   1888 1
  1895   1888   1889 1
  1896   1889   1890 1
  1897   1890   1891 ar
  1898   1890   1899 ar
  1899   1891   1892 ar
  1900   1892   1893 ar
  1901   1893   1894 ar
  1902   1893   1899 ar
  1903   1894   1895 1
  1904   1894   1896 ar
  1905   1896   1897 ar
  1906   1897   1898 ar
  1907   1898   1899 ar
  1908   1911   1912 1
  1909   1911   1913 1
  1910   1911   1914 1
  1911   1914   1915 1
  1912   1915   1916 1
  1913   1916   1917 1
  1914   1916   1918 1
  1915   1917   1921 1
  1916   1918   1919 1
  1917   1918   1920 1
  1918   1920   1921 1
  1919   1921   1922 1
  1920   1922   1923 ar
  1921   1922   1931 ar
  1922   1923   1924 ar
  1923   1924   1925 ar
  1924   1925   1926 ar
  1925   1925   1931 ar
  1926   1926   1927 1
  1927   1926   1928 ar
  1928   1928   1929 ar
  1929   1929   1930 ar
  1930   1930   1931 ar
  1931   1943   1944 1
  1932   1943   1945 1
  1933   1943   1946 1
  1934   1946   1947 1
  1935   1947   1948 1
  1936   1948   1949 1
  1937   1948   1950 1
  1938   1949   1953 1
  1939   1950   1951 1
  1940   1950   1952 1
  1941   1952   1953 1
  1942   1953   1954 1
  1943   1954   1955 am
  1944   1954   1962 1
  1945   1955   1956 2
  1946   1955   1957 am
  1947   1957   1958 am
  1948   1958   1959 2
  1949   1958   1960 1
  1950   1960   1961 1
  1951   1960   1962 2
  1952   1975   1976 1
  1953   1975   1977 1
  1954   1975   1978 1
  1955   1978   1979 1
  1956   1979   1980 1
  1957   1980   1981 1
  1958   1980   1982 1
  1959   1981   1985 1
  1960   1982   1983 1
  1961   1982   1984 1
  1962   1984   1985 1
  1963   1985   1986 1
  1964   1986   1987 am
  1965   1986   1994 1
  1966   1987   1988 2
  1967   1987   1989 am
  1968   1989   1990 am
  1969   1990   1991 2
  1970   1990   1992 1
  1971   1992   1993 1
  1972   1992   1994 2
  1973   2007   2008 1
  1974   2007   2009 1
  1975   2007   2010 1
  1976   2010   2011 1
  1977   2011   2012 1
  1978   2012   2013 1
  1979   2012   2014 1
  1980   2013   2017 1
  1981   2014   2015 1
  1982   2014   2016 1
  1983   2016   2017 1
  1984   2017   2018 1
  1985   2018   2019 am
  1986   2018   2025 1
  1987   2019   2020 2
  1988   2019   2021 1
  1989   2021   2022 2
  1990   2022   2023 2
  1991   2022   2024 2
  1992   2024   2025 2
  1993   2037   2038 1
  1994   2037   2039 1
  1995   2037   2040 1
  1996   2040   2041 1
  1997   2041   2042 1
  1998   2042   2043 1
  1999   2042   2044 1
  2000   2043   2047 1
  2001   2044   2045 1
  2002   2044   2046 1
  2003   2046   2047 1
  2004   2047   2048 1
  2005   2048   2049 ar
  2006   2048   2057 ar
  2007   2049   2050 ar
  2008   2050   2051 ar
  2009   2051   2052 ar
  2010   2051   2057 ar
  2011   2052   2053 1
  2012   2052   2054 ar
  2013   2054   2055 ar
  2014   2055   2056 ar
  2015   2056   2057 ar
  2016   2069   2070 1
  2017   2069   2071 1
  2018   2069   2072 1
  2019   2072   2073 1
  2020   2073   2074 1
  2021   2074   2075 1
  2022   2074   2076 1
  2023   2075   2079 1
  2024   2076   2077 1
  2025   2076   2078 1
  2026   2078   2079 1
  2027   2079   2080 1
  2028   2080   2081 am
  2029   2080   2087 1
  2030   2081   2082 2
  2031   2081   2083 1
  2032   2083   2084 2
  2033   2084   2085 2
  2034   2084   2086 2
  2035   2086   2087 2
  2036   1485   1467 1
  2037   1486   1467 1
  2038   1487   1468 1
  2039   1488   1470 1
  2040   1489   1472 1
  2041   1490   1472 1
  2042   1491   1473 1
  2043   1492   1475 1
  2044   1493   1480 1
  2045   1516   1500 1
  2046   1517   1500 1
  2047   1518   1501 1
  2048   1519   1503 1
  2049   1520   1505 1
  2050   1521   1505 1
  2051   1522   1506 1
  2052   1523   1510 1
  2053   1524   1515 1
  2054   1550   1532 1
  2055   1551   1532 1
  2056   1552   1533 1
  2057   1553   1535 1
  2058   1554   1537 1
  2059   1555   1537 1
  2060   1556   1538 1
  2061   1557   1540 1
  2062   1558   1545 1
  2063   1582   1565 1
  2064   1583   1565 1
  2065   1584   1566 1
  2066   1585   1568 1
  2067   1586   1570 1
  2068   1587   1570 1
  2069   1588   1571 1
  2070   1589   1573 1
  2071   1590   1579 1
  2072   1614   1597 1
  2073   1615   1597 1
  2074   1616   1598 1
  2075   1617   1600 1
  2076   1618   1602 1
  2077   1619   1602 1
  2078   1620   1603 1
  2079   1621   1605 1
  2080   1622   1611 1
  2081   1645   1629 1
  2082   1646   1629 1
  2083   1647   1630 1
  2084   1648   1632 1
  2085   1649   1634 1
  2086   1650   1634 1
  2087   1651   1635 1
  2088   1652   1639 1
  2089   1653   1644 1
  2090   1677   1661 1
  2091   1678   1661 1
  2092   1679   1662 1
  2093   1680   1664 1
  2094   1681   1666 1
  2095   1682   1666 1
  2096   1683   1667 1
  2097   1684   1671 1
  2098   1685   1676 1
  2099   1708   1693 1
  2100   1709   1693 1
  2101   1710   1694 1
  2102   1711   1696 1
  2103   1712   1698 1
  2104   1713   1698 1
  2105   1714   1699 1
  2106   1715   1706 1
  2107   1716   1707 1
  2108   1740   1723 1
  2109   1741   1723 1
  2110   1742   1724 1
  2111   1743   1726 1
  2112   1744   1728 1
  2113   1745   1728 1
  2114   1746   1729 1
  2115   1747   1731 1
  2116   1748   1737 1
  2117   1770   1755 1
  2118   1771   1755 1
  2119   1772   1756 1
  2120   1773   1758 1
  2121   1774   1760 1
  2122   1775   1760 1
  2123   1776   1761 1
  2124   1777   1768 1
  2125   1778   1769 1
  2126   1803   1785 1
  2127   1804   1785 1
  2128   1805   1786 1
  2129   1806   1788 1
  2130   1807   1790 1
  2131   1808   1790 1
  2132   1809   1791 1
  2133   1810   1793 1
  2134   1811   1798 1
  2135   1834   1818 1
  2136   1835   1818 1
  2137   1836   1819 1
  2138   1837   1821 1
  2139   1838   1823 1
  2140   1839   1823 1
  2141   1840   1824 1
  2142   1841   1828 1
  2143   1842   1833 1
  2144   1868   1850 1
  2145   1869   1850 1
  2146   1870   1851 1
  2147   1871   1853 1
  2148   1872   1855 1
  2149   1873   1855 1
  2150   1874   1856 1
  2151   1875   1858 1
  2152   1876   1863 1
  2153   1900   1883 1
  2154   1901   1883 1
  2155   1902   1884 1
  2156   1903   1886 1
  2157   1904   1888 1
  2158   1905   1888 1
  2159   1906   1889 1
  2160   1907   1891 1
  2161   1908   1897 1
  2162   1932   1915 1
  2163   1933   1915 1
  2164   1934   1916 1
  2165   1935   1918 1
  2166   1936   1920 1
  2167   1937   1920 1
  2168   1938   1921 1
  2169   1939   1923 1
  2170   1940   1929 1
  2171   1963   1947 1
  2172   1964   1947 1
  2173   1965   1948 1
  2174   1966   1950 1
  2175   1967   1952 1
  2176   1968   1952 1
  2177   1969   1953 1
  2178   1970   1957 1
  2179   1971   1962 1
  2180   1995   1979 1
  2181   1996   1979 1
  2182   1997   1980 1
  2183   1998   1982 1
  2184   1999   1984 1
  2185   2000   1984 1
  2186   2001   1985 1
  2187   2002   1989 1
  2188   2003   1994 1
  2189   2026   2011 1
  2190   2027   2011 1
  2191   2028   2012 1
  2192   2029   2014 1
  2193   2030   2016 1
  2194   2031   2016 1
  2195   2032   2017 1
  2196   2033   2024 1
  2197   2034   2025 1
  2198   2058   2041 1
  2199   2059   2041 1
  2200   2060   2042 1
  2201   2061   2044 1
  2202   2062   2046 1
  2203   2063   2046 1
  2204   2064   2047 1
  2205   2065   2049 1
  2206   2066   2055 1
  2207   2088   2073 1
  2208   2089   2073 1
  2209   2090   2074 1
  2210   2091   2076 1
  2211   2092   2078 1
  2212   2093   2078 1
  2213   2094   2079 1
  2214   2095   2086 1
  2215   2096   2087 1
  2216   1494   1482 1
  2217   1495   1482 1
  2218   1559   1547 1
  2219   1560   1547 1
  2220   1717   1705 1
  2221   1718   1705 1
  2222   1779   1767 1
  2223   1780   1767 1
  2224   1812   1800 1
  2225   1813   1800 1
  2226   1877   1865 1
  2227   1878   1865 1
  2228   2035   2023 1
  2229   2036   2023 1
  2230   2097   2085 1
  2231   2098   2085 1
  2232   1591   1577 1
  2233   1592   1577 1
  2234   1623   1609 1
  2235   1624   1609 1
  2236   1749   1735 1
  2237   1750   1735 1
  2238   1909   1895 1
  2239   1910   1895 1
  2240   1941   1927 1
  2241   1942   1927 1
  2242   2067   2053 1
  2243   2068   2053 1
  2244   1525   1514 1
  2245   1526   1514 1
  2246   1527   1514 1
  2247   1654   1643 1
  2248   1655   1643 1
  2249   1656   1643 1
  2250   1686   1675 1
  2251   1687   1675 1
  2252   1688   1675 1
  2253   1843   1832 1
  2254   1844   1832 1
  2255   1845   1832 1
  2256   1972   1961 1
  2257   1973   1961 1
  2258   1974   1961 1
  2259   2004   1993 1
  2260   2005   1993 1
  2261   2006   1993 1
@<TRIPOS>MOLECULE
dna-seg-27-bp34
2162 2330 1 0 0
BIOPOLYMER
NO_CHARGES


@<TRIPOS>ATOM
      1 P         -9.2688     3.8040  2955.3278 P.3      901 DG      0.0000
      2 OP1      -10.2085     4.9523  2955.3262 O.co2    901 DG      0.0000
      3 OP2       -8.1965     4.1103  2956.3835 O.co2    901 DG      0.0000
      4 O5'       -9.9037     2.3559  2955.5061 O.3      901 DG      0.0000
      5 C5'      -10.1609     1.3474  2954.5061 C.3      901 DG      0.0000
      6 C4'       -9.5952     0.0340  2955.0050 C.3      901 DG      0.0000
      7 O4'       -8.2622    -0.1630  2954.5858 O.3      901 DG      0.0000
      8 C3'       -9.6228    -0.2284  2956.4972 C.3      901 DG      0.0000
      9 O3'      -10.2818    -1.4853  2956.8091 O.3      901 DG      0.0000
     10 C2'       -8.1662    -0.1933  2956.9190 C.3      901 DG      0.0000
     11 C1'       -7.4243    -0.5829  2955.6634 C.3      901 DG      0.0000
     12 N9        -6.1027     0.0695  2955.6343 N.ar     901 DG      0.0000
     13 C8        -5.7742     1.3848  2955.8632 C.ar     901 DG      0.0000
     14 N7        -4.4884     1.6402  2955.7735 N.ar     901 DG      0.0000
     15 C5        -3.9270     0.4060  2955.4565 C.ar     901 DG      0.0000
     16 C6        -2.5858     0.0093  2955.2306 C.2      901 DG      0.0000
     17 O6        -1.5708     0.7062  2955.2519 O.2      901 DG      0.0000
     18 N1        -2.4107    -1.3179  2954.9491 N.am     901 DG      0.0000
     19 C2        -3.3903    -2.1622  2954.8884 C.2      901 DG      0.0000
     20 N2        -2.9584    -3.3260  2954.5916 N.pl3    901 DG      0.0000
     21 N3        -4.7417    -1.8690  2955.0972 N.2      901 DG      0.0000
     22 C4        -4.9055    -0.5665  2955.3697 C.ar     901 DG      0.0000
     23 H5'      -11.2349     1.2502  2954.3474 H        901 DG      0.0000
     24 H5''      -9.6750     1.6250  2953.5708 H        901 DG      0.0000
     25 H4'      -10.1865    -0.7549  2954.5402 H        901 DG      0.0000
     26 H3'      -10.1554     0.5843  2956.9911 H        901 DG      0.0000
     27 H2'       -7.8797     0.8061  2957.2460 H        901 DG      0.0000
     28 H2''      -7.9819    -0.9198  2957.7105 H        901 DG      0.0000
     29 H1'       -7.3000    -1.6654  2955.6314 H        901 DG      0.0000
     30 H8        -6.5086     2.1416  2956.0963 H        901 DG      0.0000
     31 H1        -1.4735    -1.6548  2954.7807 H        901 DG      0.0000
     32 H21       -1.9701    -3.4763  2954.4473 H        901 DG      0.0000
     33 H22       -3.6048    -4.0967  2954.5012 H        901 DG      0.0000
     34 P        -10.2108    -2.1537  2958.2377 P.3      902 DT      0.0000
     35 OP1      -11.4855    -2.7732  2958.7494 O.co2    902 DT      0.0000
     36 OP2       -9.9684    -0.9423  2959.1564 O.co2    902 DT      0.0000
     37 O5'       -8.9619    -3.0714  2958.2663 O.3      902 DT      0.0000
     38 C5'       -9.0344    -4.5165  2958.1223 C.3      902 DT      0.0000
     39 C4'       -7.5933    -4.9786  2958.1798 C.3      902 DT      0.0000
     40 O4'       -6.6870    -3.9332  2957.9046 O.3      902 DT      0.0000
     41 C3'       -7.1256    -5.5543  2959.4925 C.3      902 DT      0.0000
     42 O3'       -6.8140    -6.9425  2959.3043 O.3      902 DT      0.0000
     43 C2'       -5.8873    -4.7486  2959.8847 C.3      902 DT      0.0000
     44 C1'       -5.4180    -4.2799  2958.5320 C.3      902 DT      0.0000
     45 N1        -4.6286    -3.0518  2958.6286 N.am     902 DT      0.0000
     46 C2        -3.2783    -3.1533  2958.4307 C.2      902 DT      0.0000
     47 O2        -2.7249    -4.2244  2958.1925 O.2      902 DT      0.0000
     48 N3        -2.5477    -1.9985  2958.5118 N.am     902 DT      0.0000
     49 C4        -3.1045    -0.7930  2958.7677 C.2      902 DT      0.0000
     50 O4        -2.3054     0.1786  2958.8129 O.2      902 DT      0.0000
     51 C5        -4.5198    -0.7059  2958.9674 C.2      902 DT      0.0000
     52 C7        -5.1748     0.6076  2959.2473 C.3      902 DT      0.0000
     53 C6        -5.2264    -1.8405  2958.8859 C.2      902 DT      0.0000
     54 H5'       -9.6119    -4.9557  2958.9357 H        902 DT      0.0000
     55 H5''      -9.4767    -4.7784  2957.1611 H        902 DT      0.0000
     56 H4'       -7.4594    -5.7438  2957.4153 H        902 DT      0.0000
     57 H3'       -7.9017    -5.4427  2960.2496 H        902 DT      0.0000
     58 H2'       -6.1425    -3.9107  2960.5336 H        902 DT      0.0000
     59 H2''      -5.1405    -5.3890  2960.3540 H        902 DT      0.0000
     60 H1'       -4.8919    -5.0634  2957.9867 H        902 DT      0.0000
     61 H3        -1.5485    -2.0490  2958.3743 H        902 DT      0.0000
     62 H6        -6.2966    -1.8031  2959.0262 H        902 DT      0.0000
     63 H71       -5.6591     0.9729  2958.3417 H        902 DT      0.0000
     64 H72       -4.4226     1.3264  2959.5720 H        902 DT      0.0000
     65 H73       -5.9202     0.4818  2960.0326 H        902 DT      0.0000
     66 P         -7.2130    -7.8636  2960.5843 P.3      903 DG      0.0000
     67 OP1       -7.6752    -9.1269  2959.8692 O.co2    903 DG      0.0000
     68 OP2       -8.2585    -7.1947  2961.3378 O.co2    903 DG      0.0000
     69 O5'       -5.7019    -7.9594  2961.1938 O.3      903 DG      0.0000
     70 C5'       -4.7530    -8.2655  2960.1032 C.3      903 DG      0.0000
     71 C4'       -3.3676    -8.0184  2960.6232 C.3      903 DG      0.0000
     72 O4'       -2.8517    -6.7267  2960.4426 O.3      903 DG      0.0000
     73 C3'       -3.2346    -8.3434  2962.1312 C.3      903 DG      0.0000
     74 O3'       -2.1398    -9.2779  2962.2901 O.3      903 DG      0.0000
     75 C2'       -3.0630    -6.9883  2962.7838 C.3      903 DG      0.0000
     76 C1'       -2.3178    -6.2149  2961.7023 C.3      903 DG      0.0000
     77 N9        -2.4820    -4.7668  2961.8718 N.ar     903 DG      0.0000
     78 C8        -3.6080    -4.0670  2962.2080 C.ar     903 DG      0.0000
     79 N7        -3.4394    -2.7659  2962.2938 N.ar     903 DG      0.0000
     80 C5        -2.0959    -2.6031  2961.9637 C.ar     903 DG      0.0000
     81 C6        -1.2956    -1.4286  2961.8694 C.2      903 DG      0.0000
     82 O6        -1.6364    -0.2519  2962.0617 O.2      903 DG      0.0000
     83 N1         0.0186    -1.6615  2961.5344 N.am     903 DG      0.0000
     84 C2         0.4935    -2.9178  2961.3106 C.2      903 DG      0.0000
     85 N2         1.7964    -2.9546  2961.0018 N.pl3    903 DG      0.0000
     86 N3        -0.2134    -4.0434  2961.3816 N.2      903 DG      0.0000
     87 C4        -1.4976    -3.8182  2961.7082 C.ar     903 DG      0.0000
     88 H5'       -4.8565    -9.3081  2959.8027 H        903 DG      0.0000
     89 H5''      -4.9485    -7.6149  2959.2508 H        903 DG      0.0000
     90 H4'       -2.7039    -8.7012  2960.0926 H        903 DG      0.0000
     91 H3'       -4.1574    -8.8024  2962.4860 H        903 DG      0.0000
     92 H2'       -4.0266    -6.5302  2963.0068 H        903 DG      0.0000
     93 H2''      -2.4570    -7.0692  2963.6862 H        903 DG      0.0000
     94 H1'       -1.2572    -6.4590  2961.7612 H        903 DG      0.0000
     95 H8        -4.5595    -4.5450  2962.3886 H        903 DG      0.0000
     96 H1         0.6497    -0.8772  2961.4520 H        903 DG      0.0000
     97 H21        2.3279    -2.0972  2960.9515 H        903 DG      0.0000
     98 H22        2.2473    -3.8397  2960.8191 H        903 DG      0.0000
     99 P         -1.7984    -9.9100  2963.6785 P.3      904 DA      0.0000
    100 OP1       -2.5035   -11.1787  2964.0339 O.co2    904 DA      0.0000
    101 OP2       -2.4008    -8.7660  2964.5743 O.co2    904 DA      0.0000
    102 O5'       -0.2357    -9.8069  2963.9276 O.3      904 DA      0.0000
    103 C5'        0.7564    -9.6782  2962.8986 C.3      904 DA      0.0000
    104 C4'        1.6847    -8.5718  2963.3729 C.3      904 DA      0.0000
    105 O4'        1.0420    -7.3183  2963.2825 O.3      904 DA      0.0000
    106 C3'        2.2129    -8.6981  2964.8020 C.3      904 DA      0.0000
    107 O3'        3.6363    -8.4695  2964.8543 O.3      904 DA      0.0000
    108 C2'        1.4058    -7.6212  2965.5374 C.3      904 DA      0.0000
    109 C1'        1.3961    -6.5476  2964.4598 C.3      904 DA      0.0000
    110 N9         0.4068    -5.4897  2964.6882 N.ar     904 DA      0.0000
    111 C8        -0.9392    -5.5779  2964.9040 C.ar     904 DA      0.0000
    112 N7        -1.5297    -4.4152  2965.0690 N.ar     904 DA      0.0000
    113 C5        -0.5002    -3.4965  2964.9288 C.ar     904 DA      0.0000
    114 C6        -0.4924    -2.0853  2964.9767 C.ar     904 DA      0.0000
    115 N6        -1.5722    -1.3315  2965.1965 N.pl3    904 DA      0.0000
    116 N1         0.7287    -1.5028  2964.7869 N.ar     904 DA      0.0000
    117 C2         1.8366    -2.2485  2964.5692 C.ar     904 DA      0.0000
    118 N3         1.9047    -3.5780  2964.5109 N.ar     904 DA      0.0000
    119 C4         0.6940    -4.1344  2964.6978 C.ar     904 DA      0.0000
    120 H5'        0.2908    -9.4058  2961.9514 H        904 DA      0.0000
    121 H5''       1.3090   -10.6116  2962.7908 H        904 DA      0.0000
    122 H4'        2.5445    -8.5516  2962.7031 H        904 DA      0.0000
    123 H3'        1.9763    -9.6835  2965.2034 H        904 DA      0.0000
    124 H2'        0.3999    -7.9618  2965.7829 H        904 DA      0.0000
    125 H2''       1.9315    -7.2776  2966.4283 H        904 DA      0.0000
    126 H1'        2.3910    -6.1172  2964.3453 H        904 DA      0.0000
    127 H8        -1.4701    -6.5178  2964.9361 H        904 DA      0.0000
    128 H2         2.7621    -1.7101  2964.4278 H        904 DA      0.0000
    129 H61       -2.5272    -1.6458  2965.0991 H        904 DA      0.0000
    130 H62       -1.5062    -0.3383  2965.0250 H        904 DA      0.0000
    131 P          4.5958    -9.1585  2965.9957 P.3      905 DA      0.0000
    132 OP1        5.6154   -10.0478  2965.3286 O.co2    905 DA      0.0000
    133 OP2        3.5936    -9.8565  2966.8266 O.co2    905 DA      0.0000
    134 O5'        5.4450    -7.9167  2966.5265 O.3      905 DA      0.0000
    135 C5'        6.3211    -7.1498  2965.7022 C.3      905 DA      0.0000
    136 C4'        6.3328    -5.7239  2966.2245 C.3      905 DA      0.0000
    137 O4'        5.0422    -5.1829  2966.2527 O.3      905 DA      0.0000
    138 C3'        6.9493    -5.4842  2967.5918 C.3      905 DA      0.0000
    139 O3'        8.1055    -4.6507  2967.5140 O.3      905 DA      0.0000
    140 C2'        5.7906    -4.9161  2968.4206 C.3      905 DA      0.0000
    141 C1'        4.8676    -4.3254  2967.4268 C.3      905 DA      0.0000
    142 N9         3.4191    -4.2692  2967.6948 N.ar     905 DA      0.0000
    143 C8         2.5019    -5.2856  2967.8100 C.ar     905 DA      0.0000
    144 N7         1.2666    -4.8772  2967.9793 N.ar     905 DA      0.0000
    145 C5         1.3680    -3.4902  2967.9423 C.ar     905 DA      0.0000
    146 C6         0.3872    -2.4648  2968.0627 C.ar     905 DA      0.0000
    147 N6        -0.9115    -2.6598  2968.2544 N.pl3    905 DA      0.0000
    148 N1         0.8582    -1.1795  2967.9646 N.ar     905 DA      0.0000
    149 C2         2.1882    -0.9393  2967.7755 C.ar     905 DA      0.0000
    150 N3         3.1530    -1.8458  2967.6676 N.ar     905 DA      0.0000
    151 C4         2.6753    -3.1031  2967.7595 C.ar     905 DA      0.0000
    152 H5'        5.9647    -7.1628  2964.6722 H        905 DA      0.0000
    153 H5''       7.3274    -7.5662  2965.7482 H        905 DA      0.0000
    154 H4'        6.9070    -5.1319  2965.5118 H        905 DA      0.0000
    155 H3'        7.2412    -6.4454  2968.0150 H        905 DA      0.0000
    156 H2'        5.2948    -5.7088  2968.9808 H        905 DA      0.0000
    157 H2''       6.1555    -4.1460  2969.1001 H        905 DA      0.0000
    158 H1'        5.2157    -3.3222  2967.1807 H        905 DA      0.0000
    159 H8         2.7741    -6.3297  2967.7651 H        905 DA      0.0000
    160 H2         2.4876     0.0961  2967.7063 H        905 DA      0.0000
    161 H61       -1.2818    -3.5411  2968.5806 H        905 DA      0.0000
    162 H62       -1.5514    -1.9010  2968.0676 H        905 DA      0.0000
    163 P          9.4161    -4.7608  2968.4702 P.3      906 DT      0.0000
    164 OP1       10.7054    -4.5986  2967.6729 O.co2    906 DT      0.0000
    165 OP2        9.3521    -5.9520  2969.2908 O.co2    906 DT      0.0000
    166 O5'        9.3509    -3.3330  2969.2839 O.3      906 DT      0.0000
    167 C5'        8.9446    -2.2530  2968.3388 C.3      906 DT      0.0000
    168 C4'        7.9695    -1.4153  2969.1265 C.3      906 DT      0.0000
    169 O4'        6.7173    -2.0342  2969.3185 O.3      906 DT      0.0000
    170 C3'        8.4846    -1.1003  2970.5431 C.3      906 DT      0.0000
    171 O3'        9.0656     0.1905  2970.5448 O.3      906 DT      0.0000
    172 C2'        7.2590    -1.2537  2971.4404 C.3      906 DT      0.0000
    173 C1'        6.1416    -1.2850  2970.4758 C.3      906 DT      0.0000
    174 N1         4.8891    -1.9413  2970.8155 N.am     906 DT      0.0000
    175 C2         3.7698    -1.1265  2970.9535 C.2      906 DT      0.0000
    176 O2         3.8871     0.0890  2970.8654 O.2      906 DT      0.0000
    177 N3         2.5695    -1.7185  2971.2075 N.am     906 DT      0.0000
    178 C4         2.4250    -3.0711  2971.3276 C.2      906 DT      0.0000
    179 O4         1.2727    -3.5467  2971.5828 O.2      906 DT      0.0000
    180 C5         3.5880    -3.8920  2971.1560 C.2      906 DT      0.0000
    181 C7         3.4794    -5.3891  2971.2435 C.3      906 DT      0.0000
    182 C6         4.7689    -3.3031  2970.9003 C.2      906 DT      0.0000
    183 H5'        9.8076    -1.6593  2968.0372 H        906 DT      0.0000
    184 H5''       8.4551    -2.6806  2967.4638 H        906 DT      0.0000
    185 H4'        7.8139    -0.4751  2968.5974 H        906 DT      0.0000
    186 H3'        9.2364    -1.8366  2970.8275 H        906 DT      0.0000
    187 H2'        7.3071    -2.1794  2972.0138 H        906 DT      0.0000
    188 H2''       7.1641    -0.3964  2972.1068 H        906 DT      0.0000
    189 H1'        5.9259    -0.2647  2970.1584 H        906 DT      0.0000
    190 H3         1.7531    -1.1331  2971.3112 H        906 DT      0.0000
    191 H6         5.6447    -3.9190  2970.7581 H        906 DT      0.0000
    192 H71        2.4472    -5.6672  2971.4566 H        906 DT      0.0000
    193 H72        3.7864    -5.8313  2970.2958 H        906 DT      0.0000
    194 H73        4.1262    -5.7543  2972.0413 H        906 DT      0.0000
    195 P          9.9054     0.8833  2971.6514 P.3      907 DT      0.0000
    196 OP1       10.7875     2.0021  2971.0393 O.co2    907 DT      0.0000
    197 OP2       10.7256    -0.1833  2972.2814 O.co2    907 DT      0.0000
    198 O5'        8.8283     1.6791  2972.5337 O.3      907 DT      0.0000
    199 C5'        8.2555     2.8087  2971.8220 C.3      907 DT      0.0000
    200 C4'        6.9898     3.2071  2972.4981 C.3      907 DT      0.0000
    201 O4'        5.9848     2.2011  2972.4748 O.3      907 DT      0.0000
    202 C3'        7.1597     3.6287  2973.9648 C.3      907 DT      0.0000
    203 O3'        6.4032     4.7950  2974.2288 O.3      907 DT      0.0000
    204 C2'        6.5335     2.4206  2974.7011 C.3      907 DT      0.0000
    205 C1'        5.3309     2.2389  2973.7975 C.3      907 DT      0.0000
    206 N1         4.6361     1.0001  2974.0952 N.am     907 DT      0.0000
    207 C2         3.2519     1.0155  2974.1501 C.2      907 DT      0.0000
    208 O2         2.6595     2.0790  2973.9616 O.2      907 DT      0.0000
    209 N3         2.6026    -0.1571  2974.4160 N.am     907 DT      0.0000
    210 C4         3.2699    -1.3253  2974.6230 C.2      907 DT      0.0000
    211 O4         2.6008    -2.3745  2974.8463 O.2      907 DT      0.0000
    212 C5         4.6937    -1.3301  2974.5579 C.2      907 DT      0.0000
    213 C7         5.5004    -2.5783  2974.7678 C.3      907 DT      0.0000
    214 C6         5.3153    -0.1696  2974.2968 C.2      907 DT      0.0000
    215 H5'        8.9563     3.6435  2971.8344 H        907 DT      0.0000
    216 H5''       8.0453     2.5231  2970.7913 H        907 DT      0.0000
    217 H4'        6.5949     4.0687  2971.9597 H        907 DT      0.0000
    218 H3'        8.2094     3.7610  2974.2272 H        907 DT      0.0000
    219 H2'        7.1884     1.5493  2974.6999 H        907 DT      0.0000
    220 H2''       6.2313     2.6873  2975.7138 H        907 DT      0.0000
    221 H1'        4.6557     3.0912  2973.8732 H        907 DT      0.0000
    222 H3         1.5935    -0.1570  2974.4604 H        907 DT      0.0000
    223 H6         6.3940    -0.1591  2974.2437 H        907 DT      0.0000
    224 H71        4.8308    -3.4151  2974.9668 H        907 DT      0.0000
    225 H72        6.0861    -2.7869  2973.8725 H        907 DT      0.0000
    226 H73        6.1704    -2.4396  2975.6162 H        907 DT      0.0000
    227 P          6.6818     6.2147  2974.8368 P.3      908 DC      0.0000
    228 OP1        6.6453     7.2910  2973.7688 O.co2    908 DC      0.0000
    229 OP2        7.9529     6.0816  2975.5717 O.co2    908 DC      0.0000
    230 O5'        5.2807     6.3366  2975.6628 O.3      908 DC      0.0000
    231 C5'        4.2530     6.0644  2974.6405 C.3      908 DC      0.0000
    232 C4'        2.9222     6.0860  2975.3370 C.3      908 DC      0.0000
    233 O4'        2.4247     4.8074  2975.5839 O.3      908 DC      0.0000
    234 C3'        2.8807     6.8951  2976.6285 C.3      908 DC      0.0000
    235 O3'        1.8781     7.8996  2976.5488 O.3      908 DC      0.0000
    236 C2'        2.7196     5.7925  2977.6773 C.3      908 DC      0.0000
    237 C1'        1.9871     4.7148  2976.9808 C.3      908 DC      0.0000
    238 N1         2.3548     3.3348  2977.3129 N.am     908 DC      0.0000
    239 C2         1.2950     2.4675  2977.5687 C.2      908 DC      0.0000
    240 O2         0.1259     2.8651  2977.5732 O.2      908 DC      0.0000
    241 N3         1.6016     1.1575  2977.8426 N.2      908 DC      0.0000
    242 C4         2.8902     0.7106  2977.8327 C.2      908 DC      0.0000
    243 N4         3.0848    -0.5740  2978.1095 N.pl3    908 DC      0.0000
    244 C5         3.9532     1.5979  2977.5546 C.2      908 DC      0.0000
    245 C6         3.6358     2.8818  2977.2899 C.2      908 DC      0.0000
    246 H5'        4.2826     6.8317  2973.8669 H        908 DC      0.0000
    247 H5''       4.4228     5.0837  2974.1963 H        908 DC      0.0000
    248 H4'        2.2221     6.5629  2974.6511 H        908 DC      0.0000
    249 H3'        3.8481     7.3763  2976.7718 H        908 DC      0.0000
    250 H2'        3.6936     5.4386  2978.0152 H        908 DC      0.0000
    251 H2''       2.1373     6.1586  2978.5228 H        908 DC      0.0000
    252 H1'        0.9100     4.8609  2977.0618 H        908 DC      0.0000
    253 H5         4.9796     1.2617  2977.5541 H        908 DC      0.0000
    254 H6         4.4286     3.5752  2977.0508 H        908 DC      0.0000
    255 H41        2.2962    -1.1728  2978.3087 H        908 DC      0.0000
    256 H42        4.0213    -0.9520  2978.1208 H        908 DC      0.0000
    257 P          1.7500     9.2075  2977.5009 P.3      909 DA      0.0000
    258 OP1        1.0030    10.2621  2976.7071 O.co2    909 DA      0.0000
    259 OP2        3.1162     9.6501  2977.8464 O.co2    909 DA      0.0000
    260 O5'        0.8906     8.6714  2978.7979 O.3      909 DA      0.0000
    261 C5'       -0.3719     7.9990  2978.5026 C.3      909 DA      0.0000
    262 C4'       -0.9925     7.4797  2979.7579 C.3      909 DA      0.0000
    263 O4'       -0.7951     6.0834  2980.0001 O.3      909 DA      0.0000
    264 C3'       -0.4797     8.1108  2981.0631 C.3      909 DA      0.0000
    265 O3'       -1.4417     7.8721  2982.0931 O.3      909 DA      0.0000
    266 C2'        0.7812     7.2501  2981.2777 C.3      909 DA      0.0000
    267 C1'        0.0979     5.8908  2981.0945 C.3      909 DA      0.0000
    268 N9         1.1119     4.8542  2981.0001 N.ar     909 DA      0.0000
    269 C8         2.4713     4.9461  2980.8843 C.ar     909 DA      0.0000
    270 N7         3.1091     3.7895  2980.8657 N.ar     909 DA      0.0000
    271 C5         2.0833     2.8610  2980.9733 C.ar     909 DA      0.0000
    272 C6         2.0848     1.4447  2981.0078 C.ar     909 DA      0.0000
    273 N6         3.1687     0.6945  2980.9225 N.pl3    909 DA      0.0000
    274 N1         0.8652     0.8451  2981.1403 N.ar     909 DA      0.0000
    275 C2        -0.2848     1.5845  2981.2205 C.ar     909 DA      0.0000
    276 N3        -0.3668     2.9126  2981.1907 N.ar     909 DA      0.0000
    277 C4         0.8530     3.4910  2981.0677 C.ar     909 DA      0.0000
    278 H5'       -1.0538     8.7069  2978.0315 H        909 DA      0.0000
    279 H5''      -0.1873     7.1684  2977.8213 H        909 DA      0.0000
    280 H4'       -2.0659     7.6598  2979.6990 H        909 DA      0.0000
    281 H3'       -0.2463     9.1694  2980.9495 H        909 DA      0.0000
    282 H2'        1.5489     7.4374  2980.5270 H        909 DA      0.0000
    283 H2''       1.1751     7.3651  2982.2876 H        909 DA      0.0000
    284 H1'       -0.5003     5.6940  2981.9841 H        909 DA      0.0000
    285 H8         2.9851     5.8934  2980.8133 H        909 DA      0.0000
    286 H2        -1.2118     1.0388  2981.3170 H        909 DA      0.0000
    287 H61        3.3661    -0.2795  2981.1026 H        909 DA      0.0000
    288 H62        3.9791     1.2086  2980.6078 H        909 DA      0.0000
    289 P         -2.7549     8.7757  2982.2335 P.3      910 DC      0.0000
    290 OP1       -3.0895     9.5232  2980.9884 O.co2    910 DC      0.0000
    291 OP2       -2.3962     9.6809  2983.3764 O.co2    910 DC      0.0000
    292 O5'       -3.8988     7.7146  2982.5167 O.3      910 DC      0.0000
    293 C5'       -4.5313     6.9746  2981.4290 C.3      910 DC      0.0000
    294 C4'       -4.9296     5.6731  2982.1339 C.3      910 DC      0.0000
    295 O4'       -3.7414     4.9835  2982.4459 O.3      910 DC      0.0000
    296 C3'       -5.6832     5.8881  2983.4438 C.3      910 DC      0.0000
    297 O3'       -6.9185     5.1404  2983.5117 O.3      910 DC      0.0000
    298 C2'       -4.6697     5.4864  2984.5260 C.3      910 DC      0.0000
    299 C1'       -3.8768     4.4426  2983.8499 C.3      910 DC      0.0000
    300 N1        -2.4809     4.1969  2984.2027 N.am     910 DC      0.0000
    301 C2        -2.0900     2.8595  2984.1758 C.2      910 DC      0.0000
    302 O2        -2.8769     1.9444  2983.9689 O.2      910 DC      0.0000
    303 N3        -0.7820     2.5857  2984.4289 N.2      910 DC      0.0000
    304 C4         0.1330     3.5574  2984.6623 C.2      910 DC      0.0000
    305 N4         1.3843     3.1644  2984.8932 N.pl3    910 DC      0.0000
    306 C5        -0.2756     4.9195  2984.6688 C.2      910 DC      0.0000
    307 C6        -1.5678     5.1821  2984.4194 C.2      910 DC      0.0000
    308 H5'       -5.4042     7.5018  2981.0441 H        910 DC      0.0000
    309 H5''      -3.8166     6.7774  2980.6300 H        910 DC      0.0000
    310 H4'       -5.5359     5.0664  2981.4613 H        910 DC      0.0000
    311 H3'       -5.9084     6.9494  2983.5497 H        910 DC      0.0000
    312 H2'       -4.0444     6.3318  2984.8130 H        910 DC      0.0000
    313 H2''      -5.1813     5.0753  2985.3963 H        910 DC      0.0000
    314 H1'       -4.4297     3.5034  2983.8366 H        910 DC      0.0000
    315 H5         0.4287     5.7139  2984.8674 H        910 DC      0.0000
    316 H6        -1.8943     6.2111  2984.3897 H        910 DC      0.0000
    317 H41        1.6149     2.1811  2984.8822 H        910 DC      0.0000
    318 H42        2.1026     3.8496  2985.0794 H        910 DC      0.0000
    319 P          5.9177    -6.0851  2986.4713 P.3      910 DG      0.0000
    320 OP1        6.9998    -7.1018  2986.6500 O.co2    910 DG      0.0000
    321 OP2        6.2324    -5.0635  2985.3864 O.co2    910 DG      0.0000
    322 O5'        4.4765    -6.8527  2986.2640 O.3      910 DG      0.0000
    323 C5'        3.5022    -6.8507  2987.3598 C.3      910 DG      0.0000
    324 C4'        2.1205    -6.7085  2986.7255 C.3      910 DG      0.0000
    325 O4'        1.7221    -5.3683  2986.6297 O.3      910 DG      0.0000
    326 C3'        2.0081    -7.2912  2985.3192 C.3      910 DG      0.0000
    327 O3'        0.7594    -7.9704  2985.0522 O.3      910 DG      0.0000
    328 C2'        2.1825    -6.0562  2984.4169 C.3      910 DG      0.0000
    329 C1'        1.4664    -4.9989  2985.2407 C.3      910 DG      0.0000
    330 N9         2.0082    -3.6569  2984.9674 N.ar     910 DG      0.0000
    331 C8         3.3244    -3.2926  2984.8107 C.ar     910 DG      0.0000
    332 N7         3.4998    -2.0164  2984.5923 N.ar     910 DG      0.0000
    333 C5         2.2104    -1.4979  2984.6171 C.ar     910 DG      0.0000
    334 C6         1.7306    -0.1701  2984.4607 C.2      910 DG      0.0000
    335 O6         2.4135     0.8452  2984.2638 O.2      910 DG      0.0000
    336 N1         0.3657    -0.0486  2984.5476 N.am     910 DG      0.0000
    337 C2        -0.4510    -1.1078  2984.7683 C.2      910 DG      0.0000
    338 N2        -1.7518    -0.8369  2984.8316 N.pl3    910 DG      0.0000
    339 N3        -0.0514    -2.3756  2984.9260 N.2      910 DG      0.0000
    340 C4         1.2880    -2.4942  2984.8427 C.ar     910 DG      0.0000
    341 H5'        3.5640    -7.7851  2987.9176 H        910 DG      0.0000
    342 H5''       3.6935    -6.0085  2988.0247 H        910 DG      0.0000
    343 H4'        1.4038    -7.2272  2987.3622 H        910 DG      0.0000
    344 H3'        2.8353    -7.9803  2985.1487 H        910 DG      0.0000
    345 H2'        3.2345    -5.8091  2984.2742 H        910 DG      0.0000
    346 H2''       1.6853    -6.2032  2983.4581 H        910 DG      0.0000
    347 H1'        0.3961    -5.0223  2985.0355 H        910 DG      0.0000
    348 H8         4.1405    -3.9981  2984.8635 H        910 DG      0.0000
    349 H1        -0.0467     0.8674  2984.4428 H        910 DG      0.0000
    350 H21       -2.0761     0.1127  2984.7165 H        910 DG      0.0000
    351 H22       -2.4152    -1.5808  2984.9948 H        910 DG      0.0000
    352 P          0.2635    -7.9368  2983.5287 P.3      909 DT      0.0000
    353 OP1       -0.5766    -9.1227  2983.1378 O.co2    909 DT      0.0000
    354 OP2        1.5712    -7.9503  2982.8282 O.co2    909 DT      0.0000
    355 O5'       -0.5931    -6.5890  2983.3978 O.3      909 DT      0.0000
    356 C5'       -2.0283    -6.6915  2983.6654 C.3      909 DT      0.0000
    357 C4'       -2.7359    -5.5888  2982.9084 C.3      909 DT      0.0000
    358 O4'       -2.0008    -4.3784  2982.8811 O.3      909 DT      0.0000
    359 C3'       -3.0047    -5.9418  2981.4537 C.3      909 DT      0.0000
    360 O3'       -4.2759    -5.4681  2980.9586 O.3      909 DT      0.0000
    361 C2'       -1.8428    -5.2972  2980.7308 C.3      909 DT      0.0000
    362 C1'       -1.7590    -3.9945  2981.5089 C.3      909 DT      0.0000
    363 N1        -0.3821    -3.4984  2981.3576 N.am     909 DT      0.0000
    364 C2        -0.2094    -2.1222  2981.4644 C.2      909 DT      0.0000
    365 O2        -1.1731    -1.3877  2981.6541 O.2      909 DT      0.0000
    366 N3         1.0646    -1.6418  2981.3442 N.am     909 DT      0.0000
    367 C4         2.1281    -2.4655  2981.1267 C.2      909 DT      0.0000
    368 O4         3.2792    -1.9248  2981.0291 O.2      909 DT      0.0000
    369 C5         1.9200    -3.8704  2981.0203 C.2      909 DT      0.0000
    370 C7         3.0861    -4.7887  2980.7913 C.3      909 DT      0.0000
    371 C6         0.6735    -4.3340  2981.1420 C.2      909 DT      0.0000
    372 H5'       -2.3964    -7.6617  2983.3317 H        909 DT      0.0000
    373 H5''      -2.2109    -6.5781  2984.7341 H        909 DT      0.0000
    374 H4'       -3.6917    -5.3977  2983.3963 H        909 DT      0.0000
    375 H3'       -2.9504    -7.0234  2981.3297 H        909 DT      0.0000
    376 H2'       -0.9297    -5.8853  2980.8224 H        909 DT      0.0000
    377 H2''      -2.0865    -5.1130  2979.6844 H        909 DT      0.0000
    378 H1'       -2.4911    -3.2670  2981.1583 H        909 DT      0.0000
    379 H3         1.2224    -0.6470  2981.4189 H        909 DT      0.0000
    380 H6         0.4973    -5.3969  2981.0679 H        909 DT      0.0000
    381 H71        4.0026    -4.2027  2980.7226 H        909 DT      0.0000
    382 H72        3.1648    -5.4897  2981.6222 H        909 DT      0.0000
    383 H73        2.9373    -5.3406  2979.8632 H        909 DT      0.0000
    384 P         -5.0021    -6.7414  2980.1802 P.3      908 DG      0.0000
    385 OP1       -5.9379    -7.5143  2981.0514 O.co2    908 DG      0.0000
    386 OP2       -3.7783    -7.4768  2979.7746 O.co2    908 DG      0.0000
    387 O5'       -5.8814    -5.9582  2979.0994 O.3      908 DG      0.0000
    388 C5'       -7.1236    -5.3413  2979.5228 C.3      908 DG      0.0000
    389 C4'       -7.0097    -3.8895  2979.0751 C.3      908 DG      0.0000
    390 O4'       -5.7079    -3.4096  2979.3458 O.3      908 DG      0.0000
    391 C3'       -7.2806    -3.6654  2977.5874 C.3      908 DG      0.0000
    392 O3'       -8.3137    -2.7192  2977.3789 O.3      908 DG      0.0000
    393 C2'       -5.9264    -3.2928  2977.0107 C.3      908 DG      0.0000
    394 C1'       -5.2139    -2.6871  2978.1968 C.3      908 DG      0.0000
    395 N9        -3.7625    -2.8468  2978.0732 N.ar     908 DG      0.0000
    396 C8        -3.0465    -3.9994  2977.9144 C.ar     908 DG      0.0000
    397 N7        -1.7519    -3.8098  2977.8363 N.ar     908 DG      0.0000
    398 C5        -1.6029    -2.4328  2977.9738 C.ar     908 DG      0.0000
    399 C6        -0.4523    -1.6009  2977.9833 C.2      908 DG      0.0000
    400 O6         0.7183    -1.9546  2977.8842 O.2      908 DG      0.0000
    401 N1        -0.7153    -0.2688  2978.1323 N.am     908 DG      0.0000
    402 C2        -1.9953     0.2123  2978.2652 C.2      908 DG      0.0000
    403 N2        -2.1096     1.5338  2978.4008 N.pl3    908 DG      0.0000
    404 N3        -3.1180    -0.5135  2978.2694 N.2      908 DG      0.0000
    405 C4        -2.8416    -1.8313  2978.1188 C.ar     908 DG      0.0000
    406 H5'       -7.9751    -5.8249  2979.0441 H        908 DG      0.0000
    407 H5''      -7.2204    -5.3947  2980.6072 H        908 DG      0.0000
    408 H4'       -7.7217    -3.2955  2979.6481 H        908 DG      0.0000
    409 H3'       -7.5908    -4.6138  2977.1488 H        908 DG      0.0000
    410 H2'       -5.3997    -4.1740  2976.6443 H        908 DG      0.0000
    411 H2''      -6.0390    -2.5562  2976.2151 H        908 DG      0.0000
    412 H1'       -5.4667    -1.6304  2978.2838 H        908 DG      0.0000
    413 H8        -3.5045    -4.9758  2977.8583 H        908 DG      0.0000
    414 H1         0.0559     0.3832  2978.1451 H        908 DG      0.0000
    415 H21       -1.2834     2.1147  2978.4018 H        908 DG      0.0000
    416 H22       -3.0223     1.9539  2978.5026 H        908 DG      0.0000
    417 P         -8.4708    -1.4070  2976.5126 P.3      907 DA      0.0000
    418 OP1       -9.2614    -0.3499  2977.2939 O.co2    907 DA      0.0000
    419 OP2       -9.2125    -1.8224  2975.3199 O.co2    907 DA      0.0000
    420 O5'       -6.9711    -0.7950  2976.3378 O.3      907 DA      0.0000
    421 C5'       -6.5860     0.0390  2977.4942 C.3      907 DA      0.0000
    422 C4'       -6.3777     1.4369  2976.9664 C.3      907 DA      0.0000
    423 O4'       -5.0219     1.7312  2976.7442 O.3      907 DA      0.0000
    424 C3'       -7.0710     1.6771  2975.6259 C.3      907 DA      0.0000
    425 O3'       -7.6781     2.9448  2975.5507 O.3      907 DA      0.0000
    426 C2'       -5.9702     1.3613  2974.6294 C.3      907 DA      0.0000
    427 C1'       -4.6688     1.5664  2975.3532 C.3      907 DA      0.0000
    428 N9        -3.7388     0.4468  2975.1277 N.ar     907 DA      0.0000
    429 C8        -4.0207    -0.8893  2974.9413 C.ar     907 DA      0.0000
    430 N7        -2.9637    -1.6435  2974.7454 N.ar     907 DA      0.0000
    431 C5        -1.9097    -0.7427  2974.8323 C.ar     907 DA      0.0000
    432 C6        -0.5112    -0.9258  2974.7267 C.ar     907 DA      0.0000
    433 N6         0.0633    -2.0966  2974.5142 N.pl3    907 DA      0.0000
    434 N1         0.2506     0.1961  2974.8504 N.ar     907 DA      0.0000
    435 C2        -0.3156     1.4186  2975.0749 C.ar     907 DA      0.0000
    436 N3        -1.6202     1.6579  2975.1908 N.ar     907 DA      0.0000
    437 C4        -2.3668     0.5355  2975.0547 C.ar     907 DA      0.0000
    438 H5'       -7.3787     0.0337  2978.2423 H        907 DA      0.0000
    439 H5''      -5.6601    -0.3354  2977.9309 H        907 DA      0.0000
    440 H4'       -6.7727     2.1459  2977.6941 H        907 DA      0.0000
    441 H3'       -7.8515     0.9246  2975.5128 H        907 DA      0.0000
    442 H2'       -6.0342     2.0319  2973.7725 H        907 DA      0.0000
    443 H2''      -6.0531     0.3260  2974.2988 H        907 DA      0.0000
    444 H1'       -4.2070     2.4864  2974.9950 H        907 DA      0.0000
    445 H8        -5.0263    -1.2829  2974.9552 H        907 DA      0.0000
    446 H2         0.3517     2.2629  2975.1662 H        907 DA      0.0000
    447 H61        1.0048    -2.2816  2974.8296 H        907 DA      0.0000
    448 H62       -0.4481    -2.8193  2974.0280 H        907 DA      0.0000
    449 P         -7.7840     3.9851  2974.3661 P.3      906 DA      0.0000
    450 OP1       -8.3240     5.3494  2974.8860 O.co2    906 DA      0.0000
    451 OP2       -8.7894     3.3884  2973.4325 O.co2    906 DA      0.0000
    452 O5'       -6.3197     4.2768  2973.8634 O.3      906 DA      0.0000
    453 C5'       -5.6225     5.4546  2974.3193 C.3      906 DA      0.0000
    454 C4'       -4.2821     5.4738  2973.6174 C.3      906 DA      0.0000
    455 O4'       -3.6775     4.2178  2973.4966 O.3      906 DA      0.0000
    456 C3'       -4.3399     6.0658  2972.2098 C.3      906 DA      0.0000
    457 O3'       -3.5987     7.3002  2972.1784 O.3      906 DA      0.0000
    458 C2'       -3.8788     4.9176  2971.3103 C.3      906 DA      0.0000
    459 C1'       -2.9860     4.1158  2972.2080 C.3      906 DA      0.0000
    460 N9        -2.8703     2.6924  2971.9085 N.ar     906 DA      0.0000
    461 C8        -3.8658     1.7573  2971.7137 C.ar     906 DA      0.0000
    462 N7        -3.4164     0.5394  2971.5083 N.ar     906 DA      0.0000
    463 C5        -2.0432     0.6688  2971.5828 C.ar     906 DA      0.0000
    464 C6        -0.9982    -0.2727  2971.4493 C.ar     906 DA      0.0000
    465 N6        -1.1927    -1.5653  2971.2061 N.pl3    906 DA      0.0000
    466 N1         0.2676     0.2345  2971.5982 N.ar     906 DA      0.0000
    467 C2         0.4952     1.5379  2971.8507 C.ar     906 DA      0.0000
    468 N3        -0.4398     2.4826  2971.9895 N.ar     906 DA      0.0000
    469 C4        -1.6858     1.9799  2971.8423 C.ar     906 DA      0.0000
    470 H5'       -6.1914     6.3486  2974.0641 H        906 DA      0.0000
    471 H5''      -5.4753     5.4041  2975.3981 H        906 DA      0.0000
    472 H4'       -3.6143     6.1014  2974.2075 H        906 DA      0.0000
    473 H3'       -5.3810     6.2867  2971.9748 H        906 DA      0.0000
    474 H2'       -4.7268     4.3229  2970.9704 H        906 DA      0.0000
    475 H2''      -3.3173     5.3022  2970.4589 H        906 DA      0.0000
    476 H1'       -1.9984     4.5731  2972.2692 H        906 DA      0.0000
    477 H8        -4.9173     2.0034  2971.7287 H        906 DA      0.0000
    478 H2         1.5253     1.8470  2971.9497 H        906 DA      0.0000
    479 H61       -0.4448    -2.1771  2971.5002 H        906 DA      0.0000
    480 H62       -2.0296    -1.9112  2970.7589 H        906 DA      0.0000
    481 P         -3.4990     8.1150  2970.7934 P.3      905 DT      0.0000
    482 OP1       -3.0066     9.5282  2970.8516 O.co2    905 DT      0.0000
    483 OP2       -4.8927     7.9425  2970.2808 O.co2    905 DT      0.0000
    484 O5'       -2.2787     7.2238  2970.0903 O.3      905 DT      0.0000
    485 C5'       -1.2713     6.9223  2971.1026 C.3      905 DT      0.0000
    486 C4'        0.0258     6.6270  2970.4197 C.3      905 DT      0.0000
    487 O4'        0.2639     5.2630  2970.2392 O.3      905 DT      0.0000
    488 C3'        0.1770     7.2882  2969.0584 C.3      905 DT      0.0000
    489 O3'        1.5143     7.7280  2968.7911 O.3      905 DT      0.0000
    490 C2'       -0.3250     6.1463  2968.1651 C.3      905 DT      0.0000
    491 C1'        0.3349     4.9437  2968.8051 C.3      905 DT      0.0000
    492 N1        -0.4508     3.7167  2968.5751 N.am     905 DT      0.0000
    493 C2         0.2441     2.5262  2968.4535 C.2      905 DT      0.0000
    494 O2         1.4753     2.5007  2968.4903 O.2      905 DT      0.0000
    495 N3        -0.4777     1.3757  2968.2861 N.am     905 DT      0.0000
    496 C4        -1.8369     1.3800  2968.2376 C.2      905 DT      0.0000
    497 O4        -2.4221     0.2714  2968.0520 O.2      905 DT      0.0000
    498 C5        -2.5329     2.6123  2968.3860 C.2      905 DT      0.0000
    499 C7        -4.0416     2.6554  2968.3339 C.3      905 DT      0.0000
    500 C6        -1.8138     3.7262  2968.5589 C.2      905 DT      0.0000
    501 H5'       -1.1495     7.7796  2971.7647 H        905 DT      0.0000
    502 H5''      -1.5846     6.0542  2971.6826 H        905 DT      0.0000
    503 H4'        0.8217     7.0127  2971.0567 H        905 DT      0.0000
    504 H3'       -0.5061     8.1344  2968.9864 H        905 DT      0.0000
    505 H2'       -1.4116     6.0663  2968.1956 H        905 DT      0.0000
    506 H2''       0.0230     6.2771  2967.1404 H        905 DT      0.0000
    507 H1'        1.3661     4.8276  2968.4711 H        905 DT      0.0000
    508 H3         0.0133     0.4977  2968.1959 H        905 DT      0.0000
    509 H6        -2.3305     4.6655  2968.6903 H        905 DT      0.0000
    510 H71       -4.3633     2.9278  2967.3287 H        905 DT      0.0000
    511 H72       -4.4084     3.3952  2969.0454 H        905 DT      0.0000
    512 H73       -4.4422     1.6747  2968.5904 H        905 DT      0.0000
    513 P          1.7690     8.3523  2967.3012 P.3      904 DT      0.0000
    514 OP1        2.1025     9.8380  2967.4492 O.co2    904 DT      0.0000
    515 OP2        0.4337     8.1983  2966.6314 O.co2    904 DT      0.0000
    516 O5'        2.9263     7.5535  2966.6491 O.3      904 DT      0.0000
    517 C5'        3.9787     6.9484  2967.4005 C.3      904 DT      0.0000
    518 C4'        4.4568     5.7454  2966.6526 C.3      904 DT      0.0000
    519 O4'        3.6239     4.6191  2966.5956 O.3      904 DT      0.0000
    520 C3'        4.8976     5.9469  2965.1865 C.3      904 DT      0.0000
    521 O3'        5.9705     5.0059  2965.0827 O.3      904 DT      0.0000
    522 C2'        3.6497     5.4844  2964.4227 C.3      904 DT      0.0000
    523 C1'        3.4206     4.2034  2965.1985 C.3      904 DT      0.0000
    524 N1         2.0792     3.6225  2965.0923 N.am     904 DT      0.0000
    525 C2         2.0294     2.2220  2965.0917 C.2      904 DT      0.0000
    526 O2         3.0611     1.5487  2965.1347 O.2      904 DT      0.0000
    527 N3         0.7933     1.6447  2965.0382 N.am     904 DT      0.0000
    528 C4        -0.3586     2.3713  2964.9785 C.2      904 DT      0.0000
    529 O4        -1.4572     1.7416  2964.9161 O.2      904 DT      0.0000
    530 C5        -0.2792     3.7906  2964.9867 C.2      904 DT      0.0000
    531 C7        -1.5511     4.6103  2964.9253 C.3      904 DT      0.0000
    532 C6         0.9319     4.3511  2965.0532 C.2      904 DT      0.0000
    533 H5'        4.7984     7.6563  2967.5228 H        904 DT      0.0000
    534 H5''       3.6047     6.6474  2968.3791 H        904 DT      0.0000
    535 H4'        5.3519     5.4154  2967.1798 H        904 DT      0.0000
    536 H3'        5.1932     6.9708  2964.9578 H        904 DT      0.0000
    537 H2'        3.8512     5.3018  2963.3672 H        904 DT      0.0000
    538 H2''       2.8224     6.1817  2964.5543 H        904 DT      0.0000
    539 H1'        4.1692     3.4618  2964.9195 H        904 DT      0.0000
    540 H3         0.7297     0.6367  2965.0431 H        904 DT      0.0000
    541 H6         1.0025     5.4285  2965.0769 H        904 DT      0.0000
    542 H71       -2.4119     3.9434  2964.8765 H        904 DT      0.0000
    543 H72       -1.5322     5.2441  2964.0387 H        904 DT      0.0000
    544 H73       -1.6249     5.2339  2965.8162 H        904 DT      0.0000
    545 P          7.0128     4.9050  2963.9365 P.3      903 DC      0.0000
    546 OP1        8.4135     4.8190  2964.5456 O.co2    903 DC      0.0000
    547 OP2        6.8818     6.1743  2963.1547 O.co2    903 DC      0.0000
    548 O5'        6.5348     3.5343  2963.1971 O.3      903 DC      0.0000
    549 C5'        6.8491     2.2999  2963.9216 C.3      903 DC      0.0000
    550 C4'        7.1373     1.2591  2962.8711 C.3      903 DC      0.0000
    551 O4'        6.0275     0.4270  2962.6258 O.3      903 DC      0.0000
    552 C3'        7.5572     1.8083  2961.5067 C.3      903 DC      0.0000
    553 O3'        8.4918     0.9920  2960.7974 O.3      903 DC      0.0000
    554 C2'        6.1907     1.9416  2960.8205 C.3      903 DC      0.0000
    555 C1'        5.4291     0.7356  2961.3671 C.3      903 DC      0.0000
    556 N1         4.0010     1.1128  2961.4849 N.am     903 DC      0.0000
    557 C2         3.0708     0.0745  2961.5022 C.2      903 DC      0.0000
    558 O2         3.4305    -1.1088  2961.4335 O.2      903 DC      0.0000
    559 N3         1.7500     0.4184  2961.6054 N.2      903 DC      0.0000
    560 C4         1.3441     1.7132  2961.6762 C.2      903 DC      0.0000
    561 N4         0.0440     1.9981  2961.7781 N.pl3    903 DC      0.0000
    562 C5         2.3142     2.7537  2961.6510 C.2      903 DC      0.0000
    563 C6         3.6114     2.4150  2961.5574 C.2      903 DC      0.0000
    564 H5'        7.7220     2.4468  2964.5576 H        903 DC      0.0000
    565 H5''       5.9948     1.9939  2964.5255 H        903 DC      0.0000
    566 H4'        7.9481     0.6309  2963.2399 H        903 DC      0.0000
    567 H3'        7.9848     2.8018  2961.6408 H        903 DC      0.0000
    568 H2'        6.2874     1.8882  2959.7362 H        903 DC      0.0000
    569 H2''       5.7020     2.8699  2961.1165 H        903 DC      0.0000
    570 H1'        5.5354    -0.1101  2960.6877 H        903 DC      0.0000
    571 H5         2.0154     3.7902  2961.7058 H        903 DC      0.0000
    572 H6         4.3608     3.1926  2961.5393 H        903 DC      0.0000
    573 H41       -0.6364     1.2520  2961.7988 H        903 DC      0.0000
    574 H42       -0.2592     2.9599  2961.8345 H        903 DC      0.0000
    575 P          8.5277     0.7609  2959.1654 P.3      902 DA      0.0000
    576 OP1        9.9285     0.3409  2958.7759 O.co2    902 DA      0.0000
    577 OP2        8.0845     2.0622  2958.5953 O.co2    902 DA      0.0000
    578 O5'        7.5655    -0.5021  2958.9999 O.3      902 DA      0.0000
    579 C5'        8.0631    -1.8165  2959.4653 C.3      902 DA      0.0000
    580 C4'        7.2753    -2.7744  2958.5880 C.3      902 DA      0.0000
    581 O4'        5.8741    -2.6347  2958.8553 O.3      902 DA      0.0000
    582 C3'        7.4144    -2.4808  2957.0836 C.3      902 DA      0.0000
    583 O3'        6.9948    -3.5826  2956.2945 O.3      902 DA      0.0000
    584 C2'        6.3247    -1.4092  2956.8961 C.3      902 DA      0.0000
    585 C1'        5.2252    -2.2054  2957.6508 C.3      902 DA      0.0000
    586 N9         4.1239    -1.2591  2957.7962 N.ar     902 DA      0.0000
    587 C8         4.2271     0.1121  2957.8691 C.ar     902 DA      0.0000
    588 N7         3.0703     0.7148  2957.9837 N.ar     902 DA      0.0000
    589 C5         2.1449    -0.3442  2957.9773 C.ar     902 DA      0.0000
    590 C6         0.7265    -0.3429  2958.0773 C.ar     902 DA      0.0000
    591 N6        -0.0089     0.7659  2958.2001 N.pl3    902 DA      0.0000
    592 N1         0.1586    -1.5808  2958.0421 N.ar     902 DA      0.0000
    593 C2         0.9045    -2.7064  2957.9232 C.ar     902 DA      0.0000
    594 N3         2.2355    -2.7804  2957.8318 N.ar     902 DA      0.0000
    595 C4         2.7844    -1.5534  2957.8593 C.ar     902 DA      0.0000
    596 H5'        9.1356    -1.9165  2959.2985 H        902 DA      0.0000
    597 H5''       7.8209    -1.9696  2960.5169 H        902 DA      0.0000
    598 H4'        7.5870    -3.7988  2958.7920 H        902 DA      0.0000
    599 H3'        8.4081    -2.1233  2956.8140 H        902 DA      0.0000
    600 H2'        6.5712    -0.4629  2957.3778 H        902 DA      0.0000
    601 H2''       6.0721    -1.2717  2955.8448 H        902 DA      0.0000
    602 H1'        4.9097    -3.0670  2957.0624 H        902 DA      0.0000
    603 H8         5.1695     0.6386  2957.8350 H        902 DA      0.0000
    604 H2         0.3661    -3.6423  2957.9000 H        902 DA      0.0000
    605 H61        0.4407     1.6699  2958.2249 H        902 DA      0.0000
    606 H62       -1.0145     0.7000  2958.2682 H        902 DA      0.0000
    607 P          7.9316    -4.1677  2955.1536 P.3      901 DC      0.0000
    608 OP1        8.8446    -5.0989  2955.9339 O.co2    901 DC      0.0000
    609 OP2        8.6607    -3.1214  2954.4280 O.co2    901 DC      0.0000
    610 O5'        6.8137    -4.8764  2954.1777 O.3      901 DC      0.0000
    611 C5'        5.8816    -5.8094  2954.8468 C.3      901 DC      0.0000
    612 C4'        4.5270    -5.6754  2954.2027 C.3      901 DC      0.0000
    613 O4'        3.6805    -4.7264  2954.8399 O.3      901 DC      0.0000
    614 C3'        4.6057    -5.2557  2952.7249 C.3      901 DC      0.0000
    615 O3'        3.5736    -5.8025  2951.9136 O.3      901 DC      0.0000
    616 C2'        4.3653    -3.7193  2952.8906 C.3      901 DC      0.0000
    617 C1'        3.0904    -3.9366  2953.7862 C.3      901 DC      0.0000
    618 N1         2.5172    -2.6377  2954.0241 N.am     901 DC      0.0000
    619 C2         1.1708    -2.5580  2954.3412 C.2      901 DC      0.0000
    620 O2         0.3378    -3.4604  2954.4817 O.2      901 DC      0.0000
    621 N3         0.6308    -1.3176  2954.5394 N.2      901 DC      0.0000
    622 C4         1.3756    -0.1762  2954.4234 C.2      901 DC      0.0000
    623 N4         0.8044     1.0190  2954.6395 N.pl3    901 DC      0.0000
    624 C5         2.7556    -0.2739  2954.0938 C.2      901 DC      0.0000
    625 C6         3.2608    -1.4981  2953.9021 C.2      901 DC      0.0000
    626 H5'        6.2420    -6.8320  2954.7353 H        901 DC      0.0000
    627 H5''       5.8103    -5.5595  2955.9054 H        901 DC      0.0000
    628 H4'        4.0359    -6.6473  2954.2495 H        901 DC      0.0000
    629 H3'        5.5909    -5.4606  2952.3059 H        901 DC      0.0000
    630 H2'        5.1764    -3.2066  2953.4077 H        901 DC      0.0000
    631 H2''       4.1202    -3.2409  2951.9423 H        901 DC      0.0000
    632 H1'        2.3720    -4.5490  2953.2412 H        901 DC      0.0000
    633 H5         3.3731     0.6074  2954.0017 H        901 DC      0.0000
    634 H6         4.3042    -1.5894  2953.6388 H        901 DC      0.0000
    635 H41       -0.1750     1.0747  2954.8800 H        901 DC      0.0000
    636 H42        1.3539     1.8629  2954.5616 H        901 DC      0.0000
    637 P         -9.0768     4.2418  2988.5128 P.3      911 DG      0.0000
    638 OP1       -9.9606     5.4337  2988.5113 O.co2    911 DG      0.0000
    639 OP2       -7.9911     4.4967  2989.5685 O.co2    911 DG      0.0000
    640 O5'       -9.7800     2.8258  2988.6912 O.3      911 DG      0.0000
    641 C5'      -10.0850     1.8306  2987.6912 C.3      911 DG      0.0000
    642 C4'       -9.5827     0.4918  2988.1900 C.3      911 DG      0.0000
    643 O4'       -8.2606     0.2313  2987.7708 O.3      911 DG      0.0000
    644 C3'       -9.6227     0.2310  2989.6822 C.3      911 DG      0.0000
    645 O3'      -10.3409    -0.9930  2989.9942 O.3      911 DG      0.0000
    646 C2'       -8.1661     0.1965  2990.1041 C.3      911 DG      0.0000
    647 C1'       -7.4437    -0.2281  2988.8484 C.3      911 DG      0.0000
    648 N9        -6.0924     0.3605  2988.8194 N.ar     911 DG      0.0000
    649 C8        -5.7015     1.6587  2989.0483 C.ar     911 DG      0.0000
    650 N7        -4.4051     1.8525  2988.9585 N.ar     911 DG      0.0000
    651 C5        -3.9031     0.5929  2988.6415 C.ar     911 DG      0.0000
    652 C6        -2.5824     0.1326  2988.4156 C.2      911 DG      0.0000
    653 O6        -1.5353     0.7803  2988.4369 O.2      911 DG      0.0000
    654 N1        -2.4708    -1.2014  2988.1341 N.am     911 DG      0.0000
    655 C2        -3.4896    -1.9980  2988.0735 C.2      911 DG      0.0000
    656 N2        -3.1137    -3.1811  2987.7767 N.pl3    911 DG      0.0000
    657 N3        -4.8255    -1.6407  2988.2822 N.2      911 DG      0.0000
    658 C4        -4.9269    -0.3318  2988.5548 C.ar     911 DG      0.0000
    659 H5'      -11.1625     1.7848  2987.5325 H        911 DG      0.0000
    660 H5''      -9.5864     2.0848  2986.7558 H        911 DG      0.0000
    661 H4'      -10.2109    -0.2681  2987.7253 H        911 DG      0.0000
    662 H3'      -10.1160     1.0681  2990.1762 H        911 DG      0.0000
    663 H2'       -7.8322     1.1812  2990.4311 H        911 DG      0.0000
    664 H2''      -8.0167    -0.5379  2990.8956 H        911 DG      0.0000
    665 H1'       -7.3712    -1.3152  2988.8165 H        911 DG      0.0000
    666 H8        -6.3990     2.4497  2989.2813 H        911 DG      0.0000
    667 H1        -1.5508    -1.5826  2987.9657 H        911 DG      0.0000
    668 H21       -2.1337    -3.3783  2987.6323 H        911 DG      0.0000
    669 H22       -3.7962    -3.9201  2987.6862 H        911 DG      0.0000
    670 P        -10.3020    -1.6641  2991.4227 P.3      912 DT      0.0000
    671 OP1      -11.6047    -2.2221  2991.9344 O.co2    912 DT      0.0000
    672 OP2      -10.0020    -0.4657  2992.3414 O.co2    912 DT      0.0000
    673 O5'       -9.0982    -2.6403  2991.4513 O.3      912 DT      0.0000
    674 C5'       -9.2396    -4.0804  2991.3073 C.3      912 DT      0.0000
    675 C4'       -7.8222    -4.6106  2991.3648 C.3      912 DT      0.0000
    676 O4'       -6.8670    -3.6096  2991.0897 O.3      912 DT      0.0000
    677 C3'       -7.3825    -5.2080  2992.6775 C.3      912 DT      0.0000
    678 O3'       -7.1374    -6.6095  2992.4893 O.3      912 DT      0.0000
    679 C2'       -6.1071    -4.4623  2993.0698 C.3      912 DT      0.0000
    680 C1'       -5.6160    -4.0165  2991.7170 C.3      912 DT      0.0000
    681 N1        -4.7690    -2.8275  2991.8137 N.am     912 DT      0.0000
    682 C2        -3.4250    -2.9933  2991.6157 C.2      912 DT      0.0000
    683 O2        -2.9234    -4.0896  2991.3776 O.2      912 DT      0.0000
    684 N3        -2.6402    -1.8747  2991.6968 N.am     912 DT      0.0000
    685 C4        -3.1388    -0.6440  2991.9527 C.2      912 DT      0.0000
    686 O4        -2.2942     0.2884  2991.9980 O.2      912 DT      0.0000
    687 C5        -4.5483    -0.4894  2992.1524 C.2      912 DT      0.0000
    688 C7        -5.1399     0.8538  2992.4323 C.3      912 DT      0.0000
    689 C6        -5.3083    -1.5891  2992.0709 C.2      912 DT      0.0000
    690 H5'       -9.8374    -4.4914  2992.1207 H        912 DT      0.0000
    691 H5''      -9.6939    -4.3208  2990.3461 H        912 DT      0.0000
    692 H4'       -7.7249    -5.3814  2990.6003 H        912 DT      0.0000
    693 H3'       -8.1524    -5.0595  2993.4346 H        912 DT      0.0000
    694 H2'       -6.3221    -3.6132  2993.7186 H        912 DT      0.0000
    695 H2''      -5.3917    -5.1376  2993.5390 H        912 DT      0.0000
    696 H1'       -5.1279    -4.8242  2991.1717 H        912 DT      0.0000
    697 H3        -1.6445    -1.9728  2991.5593 H        912 DT      0.0000
    698 H6        -6.3755    -1.5006  2992.2113 H        912 DT      0.0000
    699 H71       -5.6062     1.2418  2991.5268 H        912 DT      0.0000
    700 H72       -4.3543     1.5359  2992.7571 H        912 DT      0.0000
    701 H73       -5.8905     0.7637  2993.2176 H        912 DT      0.0000
    702 P         -7.5800    -7.5106  2993.7693 P.3      913 DG      0.0000
    703 OP1       -8.1019    -8.7503  2993.0542 O.co2    913 DG      0.0000
    704 OP2       -8.5923    -6.7925  2994.5228 O.co2    913 DG      0.0000
    705 O5'       -6.0751    -7.6783  2994.3788 O.3      913 DG      0.0000
    706 C5'       -5.1420    -8.0293  2993.2882 C.3      913 DG      0.0000
    707 C4'       -3.7463    -7.8486  2993.8082 C.3      913 DG      0.0000
    708 O4'       -3.1694    -6.5830  2993.6277 O.3      913 DG      0.0000
    709 C3'       -3.6290    -8.1796  2995.3163 C.3      913 DG      0.0000
    710 O3'       -2.5800    -9.1652  2995.4751 O.3      913 DG      0.0000
    711 C2'       -3.3929    -6.8342  2995.9689 C.3      913 DG      0.0000
    712 C1'       -2.6117    -6.0972  2994.8873 C.3      913 DG      0.0000
    713 N9        -2.7066    -4.6430  2995.0568 N.ar     913 DG      0.0000
    714 C8        -3.7979    -3.8903  2995.3930 C.ar     913 DG      0.0000
    715 N7        -3.5674    -2.5986  2995.4788 N.ar     913 DG      0.0000
    716 C5        -2.2177    -2.5001  2995.1488 C.ar     913 DG      0.0000
    717 C6        -1.3623    -1.3652  2995.0544 C.2      913 DG      0.0000
    718 O6        -1.6465    -0.1736  2995.2468 O.2      913 DG      0.0000
    719 N1        -0.0607    -1.6605  2994.7194 N.am     913 DG      0.0000
    720 C2         0.3537    -2.9380  2994.4956 C.2      913 DG      0.0000
    721 N2         1.6534    -3.0369  2994.1868 N.pl3    913 DG      0.0000
    722 N3        -0.4060    -4.0286  2994.5666 N.2      913 DG      0.0000
    723 C4        -1.6780    -3.7424  2994.8932 C.ar     913 DG      0.0000
    724 H5'       -5.2950    -9.0658  2992.9877 H        913 DG      0.0000
    725 H5''      -5.3061    -7.3701  2992.4358 H        913 DG      0.0000
    726 H4'       -3.1160    -8.5623  2993.2777 H        913 DG      0.0000
    727 H3'       -4.5726    -8.5940  2995.6711 H        913 DG      0.0000
    728 H2'       -4.3336    -6.3307  2996.1918 H        913 DG      0.0000
    729 H2''      -2.7915    -6.9440  2996.8713 H        913 DG      0.0000
    730 H1'       -1.5639    -6.3917  2994.9462 H        913 DG      0.0000
    731 H8        -4.7712    -4.3222  2995.5737 H        913 DG      0.0000
    732 H1         0.6071    -0.9072  2994.6371 H        913 DG      0.0000
    733 H21        2.2252    -2.2059  2994.1366 H        913 DG      0.0000
    734 H22        2.0615    -3.9426  2994.0041 H        913 DG      0.0000
    735 P         -2.2691    -9.8129  2996.8636 P.3      914 DA      0.0000
    736 OP1       -3.0340   -11.0465  2997.2189 O.co2    914 DA      0.0000
    737 OP2       -2.8163    -8.6415  2997.7593 O.co2    914 DA      0.0000
    738 O5'       -0.7033    -9.7845  2997.1127 O.3      914 DA      0.0000
    739 C5'        0.2938    -9.7032  2996.0836 C.3      914 DA      0.0000
    740 C4'        1.2738    -8.6424  2996.5580 C.3      914 DA      0.0000
    741 O4'        0.6916    -7.3597  2996.4676 O.3      914 DA      0.0000
    742 C3'        1.7954    -8.7938  2997.9870 C.3      914 DA      0.0000
    743 O3'        3.2280    -8.6334  2998.0393 O.3      914 DA      0.0000
    744 C2'        1.0406    -7.6796  2998.7225 C.3      914 DA      0.0000
    745 C1'        1.0822    -6.6068  2997.6449 C.3      914 DA      0.0000
    746 N9         0.1444    -5.5028  2997.8733 N.ar     914 DA      0.0000
    747 C8        -1.2043    -5.5267  2998.0890 C.ar     914 DA      0.0000
    748 N7        -1.7386    -4.3372  2998.2540 N.ar     914 DA      0.0000
    749 C5        -0.6665    -3.4687  2998.1138 C.ar     914 DA      0.0000
    750 C6        -0.5914    -2.0595  2998.1618 C.ar     914 DA      0.0000
    751 N6        -1.6339    -1.2549  2998.3815 N.pl3    914 DA      0.0000
    752 N1         0.6562    -1.5359  2997.9720 N.ar     914 DA      0.0000
    753 C2         1.7272    -2.3336  2997.7542 C.ar     914 DA      0.0000
    754 N3         1.7318    -3.6648  2997.6960 N.ar     914 DA      0.0000
    755 C4         0.4960    -4.1628  2997.8828 C.ar     914 DA      0.0000
    756 H5'       -0.1583    -9.4090  2995.1365 H        914 DA      0.0000
    757 H5''       0.8012   -10.6619  2995.9759 H        914 DA      0.0000
    758 H4'        2.1336    -8.6633  2995.8882 H        914 DA      0.0000
    759 H3'        1.5121    -9.7668  2998.3884 H        914 DA      0.0000
    760 H2'        0.0196    -7.9718  2998.9679 H        914 DA      0.0000
    761 H2''       1.5821    -7.3615  2999.6134 H        914 DA      0.0000
    762 H1'        2.0964    -6.2243  2997.5303 H        914 DA      0.0000
    763 H8        -1.7794    -6.4403  2998.1211 H        914 DA      0.0000
    764 H2         2.6773    -1.8399  2997.6128 H        914 DA      0.0000
    765 H61       -2.6028    -1.5233  2998.2841 H        914 DA      0.0000
    766 H62       -1.5207    -0.2661  2998.2100 H        914 DA      0.0000
    767 P          4.1536    -9.3673  2999.1807 P.3      915 DA      0.0000
    768 OP1        5.1296   -10.3043  2998.5137 O.co2    915 DA      0.0000
    769 OP2        3.1193   -10.0167  3000.0117 O.co2    915 DA      0.0000
    770 O5'        5.0611    -8.1675  2999.7116 O.3      915 DA      0.0000
    771 C5'        5.9728    -7.4432  2998.8872 C.3      915 DA      0.0000
    772 C4'        6.0525    -6.0195  2999.4095 C.3      915 DA      0.0000
    773 O4'        4.7892    -5.4176  2999.4377 O.3      915 DA      0.0000
    774 C3'        6.6797    -5.8095  3000.7769 C.3      915 DA      0.0000
    775 O3'        7.8743    -5.0321  3000.6990 O.3      915 DA      0.0000
    776 C2'        5.5494    -5.1868  3001.6056 C.3      915 DA      0.0000
    777 C1'        4.6557    -4.5527  3000.6118 C.3      915 DA      0.0000
    778 N9         3.2115    -4.4275  3000.8798 N.ar     915 DA      0.0000
    779 C8         2.2469    -5.3989  3000.9950 C.ar     915 DA      0.0000
    780 N7         1.0325    -4.9321  3001.1643 N.ar     915 DA      0.0000
    781 C5         1.1999    -3.5515  3001.1273 C.ar     915 DA      0.0000
    782 C6         0.2691    -2.4805  3001.2478 C.ar     915 DA      0.0000
    783 N6        -1.0374    -2.6133  3001.4394 N.pl3    915 DA      0.0000
    784 N1         0.8010    -1.2191  3001.1496 N.ar     915 DA      0.0000
    785 C2         2.1409    -1.0426  3000.9605 C.ar     915 DA      0.0000
    786 N3         3.0613    -1.9941  3000.8527 N.ar     915 DA      0.0000
    787 C4         2.5242    -3.2272  3000.9445 C.ar     915 DA      0.0000
    788 H5'        5.6162    -7.4392  2997.8572 H        915 DA      0.0000
    789 H5''       6.9580    -7.9072  2998.9332 H        915 DA      0.0000
    790 H4'        6.6543    -5.4556  2998.6968 H        915 DA      0.0000
    791 H3'        6.9254    -6.7835  3001.2001 H        915 DA      0.0000
    792 H2'        5.0164    -5.9549  3002.1659 H        915 DA      0.0000
    793 H2''       5.9507    -4.4350  3002.2852 H        915 DA      0.0000
    794 H1'        5.0513    -3.5673  3000.3657 H        915 DA      0.0000
    795 H8         2.4689    -6.4549  3000.9502 H        915 DA      0.0000
    796 H2         2.4893    -0.0227  3000.8913 H        915 DA      0.0000
    797 H61       -1.4493    -3.4759  3001.7656 H        915 DA      0.0000
    798 H62       -1.6404    -1.8248  3001.2526 H        915 DA      0.0000
    799 P          9.1783    -5.2046  3001.6552 P.3      916 DT      0.0000
    800 OP1       10.4738    -5.1041  3000.8579 O.co2    916 DT      0.0000
    801 OP2        9.0574    -6.3914  3002.4759 O.co2    916 DT      0.0000
    802 O5'        9.1812    -3.7753  3002.4690 O.3      916 DT      0.0000
    803 C5'        8.8269    -2.6771  3001.5239 C.3      916 DT      0.0000
    804 C4'        7.8929    -1.7939  3002.3116 C.3      916 DT      0.0000
    805 O4'        6.6126    -2.3523  3002.5036 O.3      916 DT      0.0000
    806 C3'        8.4225    -1.5039  3003.7282 C.3      916 DT      0.0000
    807 O3'        9.0644    -0.2422  3003.7298 O.3      916 DT      0.0000
    808 C2'        7.1909    -1.5986  3004.6254 C.3      916 DT      0.0000
    809 C1'        6.0733    -1.5765  3003.6608 C.3      916 DT      0.0000
    810 N1         4.7909    -2.1724  3004.0006 N.am     916 DT      0.0000
    811 C2         3.7118    -1.3051  3004.1385 C.2      916 DT      0.0000
    812 O2         3.8869    -0.0966  3004.0505 O.2      916 DT      0.0000
    813 N3         2.4846    -1.8392  3004.3925 N.am     916 DT      0.0000
    814 C4         2.2757    -3.1833  3004.5126 C.2      916 DT      0.0000
    815 O4         1.1020    -3.6034  3004.7678 O.2      916 DT      0.0000
    816 C5         3.3982    -4.0587  3004.3411 C.2      916 DT      0.0000
    817 C7         3.2183    -5.5489  3004.4286 C.3      916 DT      0.0000
    818 C6         4.6059    -3.5268  3004.0853 C.2      916 DT      0.0000
    819 H5'        9.7173    -2.1254  3001.2222 H        916 DT      0.0000
    820 H5''       8.3176    -3.0809  3000.6488 H        916 DT      0.0000
    821 H4'        7.7824    -0.8474  3001.7825 H        916 DT      0.0000
    822 H3'        9.1383    -2.2752  3004.0125 H        916 DT      0.0000
    823 H2'        7.1948    -2.5256  3005.1988 H        916 DT      0.0000
    824 H2''       7.1370    -0.7378  3005.2918 H        916 DT      0.0000
    825 H1'        5.9065    -0.5471  3003.3435 H        916 DT      0.0000
    826 H3         1.6970    -1.2155  3004.4962 H        916 DT      0.0000
    827 H6         5.4513    -4.1838  3003.9431 H        916 DT      0.0000
    828 H71        2.1741    -5.7775  3004.6416 H        916 DT      0.0000
    829 H72        3.5038    -6.0054  3003.4808 H        916 DT      0.0000
    830 H73        3.8469    -5.9446  3005.2264 H        916 DT      0.0000
    831 P          9.9362     0.4097  3004.8365 P.3      917 DT      0.0000
    832 OP1       10.8707     1.4851  3004.2244 O.co2    917 DT      0.0000
    833 OP2       10.7046    -0.6948  3005.4664 O.co2    917 DT      0.0000
    834 O5'        8.8983     1.2560  3005.7188 O.3      917 DT      0.0000
    835 C5'        8.3801     2.4116  3005.0070 C.3      917 DT      0.0000
    836 C4'        7.1348     2.8700  3005.6832 C.3      917 DT      0.0000
    837 O4'        6.0830     1.9130  3005.6599 O.3      917 DT      0.0000
    838 C3'        7.3247     3.2830  3007.1498 C.3      917 DT      0.0000
    839 O3'        6.6247     4.4840  3007.4139 O.3      917 DT      0.0000
    840 C2'        6.6416     2.1061  3007.8861 C.3      917 DT      0.0000
    841 C1'        5.4317     1.9820  3006.9826 C.3      917 DT      0.0000
    842 N1         4.6786     0.7778  3007.2803 N.am     917 DT      0.0000
    843 C2         3.2966     0.8592  3007.3351 C.2      917 DT      0.0000
    844 O2         2.7557     1.9498  3007.1467 O.2      917 DT      0.0000
    845 N3         2.5921    -0.2811  3007.6010 N.am     917 DT      0.0000
    846 C4         3.2029    -1.4797  3007.8080 C.2      917 DT      0.0000
    847 O4         2.4845    -2.4958  3008.0313 O.2      917 DT      0.0000
    848 C5         4.6249    -1.5525  3007.7430 C.2      917 DT      0.0000
    849 C7         5.3711    -2.8378  3007.9529 C.3      917 DT      0.0000
    850 C6         5.3012    -0.4230  3007.4818 C.2      917 DT      0.0000
    851 H5'        9.1199     3.2121  3005.0194 H        917 DT      0.0000
    852 H5''       8.1565     2.1364  3003.9763 H        917 DT      0.0000
    853 H4'        6.7815     3.7494  3005.1447 H        917 DT      0.0000
    854 H3'        8.3795     3.3651  3007.4122 H        917 DT      0.0000
    855 H2'        7.2542     1.2046  3007.8849 H        917 DT      0.0000
    856 H2''       6.3524     2.3870  3008.8989 H        917 DT      0.0000
    857 H1'        4.7978     2.8655  3007.0582 H        917 DT      0.0000
    858 H3         1.5842    -0.2328  3007.6454 H        917 DT      0.0000
    859 H6         6.3791    -0.4640  3007.4288 H        917 DT      0.0000
    860 H71        4.6623    -3.6417  3008.1518 H        917 DT      0.0000
    861 H72        5.9462    -3.0741  3007.0576 H        917 DT      0.0000
    862 H73        6.0470    -2.7312  3008.8013 H        917 DT      0.0000
    863 P          6.9707     5.8889  3008.0218 P.3      918 DC      0.0000
    864 OP1        6.9856     6.9656  3006.9539 O.co2    918 DC      0.0000
    865 OP2        8.2340     5.6953  3008.7568 O.co2    918 DC      0.0000
    866 O5'        5.5771     6.0774  3008.8478 O.3      918 DC      0.0000
    867 C5'        4.5375     5.8546  3007.8256 C.3      918 DC      0.0000
    868 C4'        3.2092     5.9396  3008.5221 C.3      918 DC      0.0000
    869 O4'        2.6513     4.6863  3008.7690 O.3      918 DC      0.0000
    870 C3'        3.2064     6.7498  3009.8135 C.3      918 DC      0.0000
    871 O3'        2.2528     7.8010  3009.7339 O.3      918 DC      0.0000
    872 C2'        2.9928     5.6561  3010.8623 C.3      918 DC      0.0000
    873 C1'        2.2098     4.6147  3010.1659 C.3      918 DC      0.0000
    874 N1         2.5113     3.2187  3010.4980 N.am     918 DC      0.0000
    875 C2         1.4112     2.4029  3010.7538 C.2      918 DC      0.0000
    876 O2         0.2624     2.8558  3010.7583 O.2      918 DC      0.0000
    877 N3         1.6550     1.0797  3011.0276 N.2      918 DC      0.0000
    878 C4         2.9208     0.5719  3011.0177 C.2      918 DC      0.0000
    879 N4         3.0539    -0.7206  3011.2946 N.pl3    918 DC      0.0000
    880 C5         4.0250     1.4074  3010.7397 C.2      918 DC      0.0000
    881 C6         3.7692     2.7051  3010.4749 C.2      918 DC      0.0000
    882 H5'        4.6037     6.6196  3007.0519 H        918 DC      0.0000
    883 H5''       4.6604     4.8669  3007.3814 H        918 DC      0.0000
    884 H4'        2.5327     6.4494  3007.8361 H        918 DC      0.0000
    885 H3'        4.1957     7.1843  3009.9568 H        918 DC      0.0000
    886 H2'        3.9488     5.2562  3011.2002 H        918 DC      0.0000
    887 H2''       2.4287     6.0496  3011.7078 H        918 DC      0.0000
    888 H1'        1.1409     4.8120  3010.2468 H        918 DC      0.0000
    889 H5         5.0341     1.0227  3010.7391 H        918 DC      0.0000
    890 H6         4.5942     3.3598  3010.2359 H        918 DC      0.0000
    891 H41        2.2376    -1.2810  3011.4938 H        918 DC      0.0000
    892 H42        3.9713    -1.1427  3011.3059 H        918 DC      0.0000
    893 P          2.1872     9.1135  3010.6859 P.3      919 DA      0.0000
    894 OP1        1.4914    10.2026  3009.8922 O.co2    919 DA      0.0000
    895 OP2        3.5730     9.4904  3011.0314 O.co2    919 DA      0.0000
    896 O5'        1.3033     8.6190  3011.9829 O.3      919 DA      0.0000
    897 C5'        0.0102     8.0077  3011.6877 C.3      919 DA      0.0000
    898 C4'       -0.6346     7.5185  3012.9430 C.3      919 DA      0.0000
    899 O4'       -0.5040     6.1144  3013.1851 O.3      919 DA      0.0000
    900 C3'       -0.0922     8.1245  3014.2482 C.3      919 DA      0.0000
    901 O3'       -1.0645     7.9319  3015.2781 O.3      919 DA      0.0000
    902 C2'        1.1262     7.2045  3014.4628 C.3      919 DA      0.0000
    903 C1'        0.3788     5.8794  3014.2795 C.3      919 DA      0.0000
    904 N9         1.3422     4.7956  3014.1852 N.ar     919 DA      0.0000
    905 C8         2.7044     4.8226  3014.0694 C.ar     919 DA      0.0000
    906 N7         3.2863     3.6368  3014.0508 N.ar     919 DA      0.0000
    907 C5         2.2174     2.7584  3014.1583 C.ar     919 DA      0.0000
    908 C6         2.1514     1.3436  3014.1928 C.ar     919 DA      0.0000
    909 N6         3.1982     0.5426  3014.1076 N.pl3    919 DA      0.0000
    910 N1         0.9045     0.8029  3014.3254 N.ar     919 DA      0.0000
    911 C2        -0.2089     1.5963  3014.4056 C.ar     919 DA      0.0000
    912 N3        -0.2274     2.9268  3014.3757 N.ar     919 DA      0.0000
    913 C4         1.0186     3.4463  3014.2527 C.ar     919 DA      0.0000
    914 H5'       -0.6372     8.7473  3011.2165 H        919 DA      0.0000
    915 H5''       0.1549     7.1692  3011.0064 H        919 DA      0.0000
    916 H4'       -1.6981     7.7497  3012.8841 H        919 DA      0.0000
    917 H3'        0.1915     9.1707  3014.1345 H        919 DA      0.0000
    918 H2'        1.9020     7.3550  3013.7120 H        919 DA      0.0000
    919 H2''       1.5251     7.3006  3015.4727 H        919 DA      0.0000
    920 H1'       -0.2281     5.7114  3015.1692 H        919 DA      0.0000
    921 H8         3.2629     5.7443  3013.9984 H        919 DA      0.0000
    922 H2        -1.1609     1.0955  3014.5020 H        919 DA      0.0000
    923 H61        3.3489    -0.4398  3014.2876 H        919 DA      0.0000
    924 H62        4.0322     1.0174  3013.7928 H        919 DA      0.0000
    925 P         -2.3330     8.8971  3015.4186 P.3      920 DC      0.0000
    926 OP1       -2.6317     9.6598  3014.1735 O.co2    920 DC      0.0000
    927 OP2       -1.9316     9.7842  3016.5615 O.co2    920 DC      0.0000
    928 O5'       -3.5263     7.8919  3015.7017 O.3      920 DC      0.0000
    929 C5'       -4.1934     7.1829  3014.6140 C.3      920 DC      0.0000
    930 C4'       -4.6533     5.9018  3015.3190 C.3      920 DC      0.0000
    931 O4'       -3.4994     5.1564  3015.6310 O.3      920 DC      0.0000
    932 C3'       -5.3958     6.1526  3016.6289 C.3      920 DC      0.0000
    933 O3'       -6.6654     5.4646  3016.6968 O.3      920 DC      0.0000
    934 C2'       -4.4026     5.7029  3017.7111 C.3      920 DC      0.0000
    935 C1'       -3.6604     4.6225  3017.0349 C.3      920 DC      0.0000
    936 N1        -2.2778     4.3105  3017.3877 N.am     920 DC      0.0000
    937 C2        -1.9512     2.9560  3017.3608 C.2      920 DC      0.0000
    938 O2        -2.7809     2.0794  3017.1539 O.2      920 DC      0.0000
    939 N3        -0.6577     2.6200  3017.6140 N.2      920 DC      0.0000
    940 C4         0.3026     3.5470  3017.8473 C.2      920 DC      0.0000
    941 N4         1.5337     3.0947  3018.0783 N.pl3    920 DC      0.0000
    942 C5        -0.0405     4.9270  3017.8539 C.2      920 DC      0.0000
    943 C6        -1.3187     5.2510  3017.6044 C.2      920 DC      0.0000
    944 H5'       -5.0402     7.7511  3014.2292 H        920 DC      0.0000
    945 H5''      -3.4889     6.9517  3013.8150 H        920 DC      0.0000
    946 H4'       -5.2878     5.3247  3014.6463 H        920 DC      0.0000
    947 H3'       -5.5701     7.2233  3016.7348 H        920 DC      0.0000
    948 H2'       -3.7377     6.5176  3017.9981 H        920 DC      0.0000
    949 H2''      -4.9332     5.3167  3018.5814 H        920 DC      0.0000
    950 H1'       -4.2575     3.7107  3017.0217 H        920 DC      0.0000
    951 H5         0.7008     5.6869  3018.0524 H        920 DC      0.0000
    952 H6        -1.5958     6.2944  3017.5747 H        920 DC      0.0000
    953 H41        1.7171     2.1016  3018.0672 H        920 DC      0.0000
    954 H42        2.2839     3.7449  3018.2644 H        920 DC      0.0000
    955 P          5.6206    -6.3605  3019.6563 P.3      920 DG      0.0000
    956 OP1        6.6530    -7.4277  3019.8351 O.co2    920 DG      0.0000
    957 OP2        5.9837    -5.3551  3018.5715 O.co2    920 DG      0.0000
    958 O5'        4.1444    -7.0584  3019.4491 O.3      920 DG      0.0000
    959 C5'        3.1714    -7.0100  3020.5448 C.3      920 DG      0.0000
    960 C4'        1.7981    -6.8021  3019.9106 C.3      920 DG      0.0000
    961 O4'        1.4640    -5.4443  3019.8147 O.3      920 DG      0.0000
    962 C3'        1.6579    -7.3787  3018.5042 C.3      920 DG      0.0000
    963 O3'        0.3782    -7.9976  3018.2372 O.3      920 DG      0.0000
    964 C2'        1.8911    -6.1535  3017.6019 C.3      920 DG      0.0000
    965 C1'        1.2263    -5.0632  3018.4258 C.3      920 DG      0.0000
    966 N9         1.8314    -3.7485  3018.1524 N.ar     920 DG      0.0000
    967 C8         3.1635    -3.4475  3017.9958 C.ar     920 DG      0.0000
    968 N7         3.3996    -2.1811  3017.7774 N.ar     920 DG      0.0000
    969 C5         2.1365    -1.6016  3017.8022 C.ar     920 DG      0.0000
    970 C6         1.7205    -0.2525  3017.6457 C.2      920 DG      0.0000
    971 O6         2.4511     0.7290  3017.4489 O.2      920 DG      0.0000
    972 N1         0.3629    -0.0659  3017.7326 N.am     920 DG      0.0000
    973 C2        -0.5033    -1.0850  3017.9533 C.2      920 DG      0.0000
    974 N2        -1.7897    -0.7524  3018.0166 N.pl3    920 DG      0.0000
    975 N3        -0.1647    -2.3705  3018.1110 N.2      920 DG      0.0000
    976 C4         1.1675    -2.5528  3018.0277 C.ar     920 DG      0.0000
    977 H5'        3.1885    -7.9463  3021.1026 H        920 DG      0.0000
    978 H5''       3.4026    -6.1779  3021.2098 H        920 DG      0.0000
    979 H4'        1.0574    -7.2860  3020.5473 H        920 DG      0.0000
    980 H3'        2.4513    -8.1064  3018.3337 H        920 DG      0.0000
    981 H2'        2.9536    -5.9568  3017.4593 H        920 DG      0.0000
    982 H2''       1.3874    -6.2766  3016.6432 H        920 DG      0.0000
    983 H1'        0.1561    -5.0354  3018.2205 H        920 DG      0.0000
    984 H8         3.9450    -4.1910  3018.0485 H        920 DG      0.0000
    985 H1        -0.0052     0.8686  3017.6278 H        920 DG      0.0000
    986 H21       -2.0683     0.2116  3017.9016 H        920 DG      0.0000
    987 H22       -2.4878    -1.4638  3018.1798 H        920 DG      0.0000
    988 P         -0.1155    -7.9403  3016.7137 P.3      919 DT      0.0000
    989 OP1       -1.0112    -9.0848  3016.3228 O.co2    919 DT      0.0000
    990 OP2        1.1901    -8.0162  3016.0132 O.co2    919 DT      0.0000
    991 O5'       -0.9068    -6.5533  3016.5828 O.3      919 DT      0.0000
    992 C5'       -2.3452    -6.5871  3016.8505 C.3      919 DT      0.0000
    993 C4'       -2.9994    -5.4519  3016.0934 C.3      919 DT      0.0000
    994 O4'       -2.2074    -4.2779  3016.0661 O.3      919 DT      0.0000
    995 C3'       -3.2847    -5.7917  3014.6387 C.3      919 DT      0.0000
    996 O3'       -4.5319    -5.2579  3014.1436 O.3      919 DT      0.0000
    997 C2'       -2.0934    -5.2032  3013.9159 C.3      919 DT      0.0000
    998 C1'       -1.9476    -3.9060  3014.6940 C.3      919 DT      0.0000
    999 N1        -0.5486    -3.4762  3014.5427 N.am     919 DT      0.0000
   1000 C2        -0.3105    -2.1098  3014.6494 C.2      919 DT      0.0000
   1001 O2        -1.2379    -1.3301  3014.8392 O.2      919 DT      0.0000
   1002 N3         0.9851    -1.6907  3014.5293 N.am     919 DT      0.0000
   1003 C4         2.0081    -2.5643  3014.3117 C.2      919 DT      0.0000
   1004 O4         3.1836    -2.0791  3014.2141 O.2      919 DT      0.0000
   1005 C5         1.7331    -3.9576  3014.2053 C.2      919 DT      0.0000
   1006 C7         2.8542    -4.9304  3013.9764 C.3      919 DT      0.0000
   1007 C6         0.4659    -4.3612  3014.3271 C.2      919 DT      0.0000
   1008 H5'       -2.7592    -7.5386  3016.5168 H        919 DT      0.0000
   1009 H5''      -2.5222    -6.4651  3017.9191 H        919 DT      0.0000
   1010 H4'       -3.9450    -5.2154  3016.5814 H        919 DT      0.0000
   1011 H3'       -3.2822    -6.8746  3014.5147 H        919 DT      0.0000
   1012 H2'       -1.2094    -5.8343  3014.0074 H        919 DT      0.0000
   1013 H2''      -2.3280    -5.0077  3012.8695 H        919 DT      0.0000
   1014 H1'       -2.6441    -3.1444  3014.3433 H        919 DT      0.0000
   1015 H3         1.1902    -0.7046  3014.6039 H        919 DT      0.0000
   1016 H6         0.2392    -5.4145  3014.2529 H        919 DT      0.0000
   1017 H71        3.7976    -4.3889  3013.9077 H        919 DT      0.0000
   1018 H72        2.8993    -5.6345  3014.8072 H        919 DT      0.0000
   1019 H73        2.6791    -5.4746  3013.0482 H        919 DT      0.0000
   1020 P         -5.3180    -6.4951  3013.3652 P.3      918 DG      0.0000
   1021 OP1       -6.2897    -7.2224  3014.2365 O.co2    918 DG      0.0000
   1022 OP2       -4.1307    -7.2881  3012.9597 O.co2    918 DG      0.0000
   1023 O5'       -6.1589    -5.6708  3012.2844 O.3      918 DG      0.0000
   1024 C5'       -7.3703    -4.9953  3012.7079 C.3      918 DG      0.0000
   1025 C4'       -7.1873    -3.5506  3012.2601 C.3      918 DG      0.0000
   1026 O4'       -5.8641    -3.1334  3012.5309 O.3      918 DG      0.0000
   1027 C3'       -7.4472    -3.3139  3010.7724 C.3      918 DG      0.0000
   1028 O3'       -8.4340    -2.3195  3010.5639 O.3      918 DG      0.0000
   1029 C2'       -6.0767    -3.0063  3010.1957 C.3      918 DG      0.0000
   1030 C1'       -5.3362    -2.4353  3011.3818 C.3      918 DG      0.0000
   1031 N9        -3.8940    -2.6640  3011.2583 N.ar     918 DG      0.0000
   1032 C8        -3.2338    -3.8495  3011.0994 C.ar     918 DG      0.0000
   1033 N7        -1.9316    -3.7219  3011.0214 N.ar     918 DG      0.0000
   1034 C5        -1.7171    -2.3536  3011.1589 C.ar     918 DG      0.0000
   1035 C6        -0.5282    -1.5775  3011.1684 C.2      918 DG      0.0000
   1036 O6         0.6242    -1.9867  3011.0693 O.2      918 DG      0.0000
   1037 N1        -0.7273    -0.2344  3011.3173 N.am     918 DG      0.0000
   1038 C2        -1.9829     0.3073  3011.4502 C.2      918 DG      0.0000
   1039 N2        -2.0340     1.6327  3011.5859 N.pl3    918 DG      0.0000
   1040 N3        -3.1389    -0.3642  3011.4545 N.2      918 DG      0.0000
   1041 C4        -2.9257    -1.6937  3011.3038 C.ar     918 DG      0.0000
   1042 H5'       -8.2439    -5.4377  3012.2291 H        918 DG      0.0000
   1043 H5''      -7.4696    -5.0441  3013.7922 H        918 DG      0.0000
   1044 H4'       -7.8701    -2.9234  3012.8331 H        918 DG      0.0000
   1045 H3'       -7.8023    -4.2464  3010.3338 H        918 DG      0.0000
   1046 H2'       -5.5927    -3.9116  3009.8293 H        918 DG      0.0000
   1047 H2''      -6.1541    -2.2652  3009.4002 H        918 DG      0.0000
   1048 H1'       -5.5383    -1.3678  3011.4689 H        918 DG      0.0000
   1049 H8        -3.7379    -4.8030  3011.0433 H        918 DG      0.0000
   1050 H1         0.0741     0.3801  3011.3302 H        918 DG      0.0000
   1051 H21       -1.1810     2.1735  3011.5868 H        918 DG      0.0000
   1052 H22       -2.9257     2.0959  3011.6876 H        918 DG      0.0000
   1053 P         -8.5283    -1.0012  3009.6976 P.3      917 DA      0.0000
   1054 OP1       -9.2676     0.0924  3010.4790 O.co2    917 DA      0.0000
   1055 OP2       -9.2889    -1.3808  3008.5049 O.co2    917 DA      0.0000
   1056 O5'       -7.0011    -0.4615  3009.5228 O.3      917 DA      0.0000
   1057 C5'       -6.5766     0.3532  3010.6793 C.3      917 DA      0.0000
   1058 C4'       -6.3019     1.7396  3010.1515 C.3      917 DA      0.0000
   1059 O4'       -4.9336     1.9688  3009.9292 O.3      917 DA      0.0000
   1060 C3'       -6.9830     2.0125  3008.8110 C.3      917 DA      0.0000
   1061 O3'       -7.5288     3.3078  3008.7358 O.3      917 DA      0.0000
   1062 C2'       -5.8984     1.6446  3007.8144 C.3      917 DA      0.0000
   1063 C1'       -4.5887     1.7874  3008.5382 C.3      917 DA      0.0000
   1064 N9        -3.7132     0.6247  3008.3127 N.ar     917 DA      0.0000
   1065 C8        -4.0585    -0.6964  3008.1264 C.ar     917 DA      0.0000
   1066 N7        -3.0388    -1.5003  3007.9305 N.ar     917 DA      0.0000
   1067 C5        -1.9430    -0.6507  3008.0173 C.ar     917 DA      0.0000
   1068 C6        -0.5547    -0.9004  3007.9117 C.ar     917 DA      0.0000
   1069 N6        -0.0368    -2.0973  3007.6992 N.pl3    917 DA      0.0000
   1070 N1         0.2596     0.1839  3008.0354 N.ar     917 DA      0.0000
   1071 C2        -0.2475     1.4321  3008.2599 C.ar     917 DA      0.0000
   1072 N3        -1.5392     1.7333  3008.3758 N.ar     917 DA      0.0000
   1073 C4        -2.3386     0.6478  3008.2397 C.ar     917 DA      0.0000
   1074 H5'       -7.3687     0.3857  3011.4273 H        917 DA      0.0000
   1075 H5''      -5.6697    -0.0649  3011.1159 H        917 DA      0.0000
   1076 H4'       -6.6626     2.4666  3010.8791 H        917 DA      0.0000
   1077 H3'       -7.7984     1.2981  3008.6978 H        917 DA      0.0000
   1078 H2'       -5.9304     2.3175  3006.9575 H        917 DA      0.0000
   1079 H2''      -6.0307     0.6144  3007.4838 H        917 DA      0.0000
   1080 H1'       -4.0835     2.6843  3008.1800 H        917 DA      0.0000
   1081 H8        -5.0818    -1.0416  3008.1403 H        917 DA      0.0000
   1082 H2         0.4593     2.2435  3008.3512 H        917 DA      0.0000
   1083 H61        0.8948    -2.3270  3008.0146 H        917 DA      0.0000
   1084 H62       -0.5821    -2.7947  3007.2130 H        917 DA      0.0000
   1085 P         -7.5850     4.3520  3007.5512 P.3      916 DA      0.0000
   1086 OP1       -8.0593     5.7405  3008.0711 O.co2    916 DA      0.0000
   1087 OP2       -8.6177     3.8039  3006.6175 O.co2    916 DA      0.0000
   1088 O5'       -6.1085     4.5734  3007.0485 O.3      916 DA      0.0000
   1089 C5'       -5.3558     5.7167  3007.5043 C.3      916 DA      0.0000
   1090 C4'       -4.0160     5.6719  3006.8024 C.3      916 DA      0.0000
   1091 O4'       -3.4721     4.3884  3006.6816 O.3      916 DA      0.0000
   1092 C3'       -4.0455     6.2659  3005.3949 C.3      916 DA      0.0000
   1093 O3'       -3.2464     7.4635  3005.3634 O.3      916 DA      0.0000
   1094 C2'       -3.6398     5.0970  3004.4953 C.3      916 DA      0.0000
   1095 C1'       -2.7862     4.2536  3005.3931 C.3      916 DA      0.0000
   1096 N9        -2.7386     2.8263  3005.0935 N.ar     916 DA      0.0000
   1097 C8        -3.7775     1.9398  3004.8987 C.ar     916 DA      0.0000
   1098 N7        -3.3868     0.7018  3004.6933 N.ar     916 DA      0.0000
   1099 C5        -2.0090     0.7655  3004.7679 C.ar     916 DA      0.0000
   1100 C6        -1.0101    -0.2248  3004.6344 C.ar     916 DA      0.0000
   1101 N6        -1.2661    -1.5066  3004.3912 N.pl3    916 DA      0.0000
   1102 N1         0.2785     0.2215  3004.7832 N.ar     916 DA      0.0000
   1103 C2         0.5680     1.5125  3005.0357 C.ar     916 DA      0.0000
   1104 N3        -0.3208     2.5008  3005.1746 N.ar     916 DA      0.0000
   1105 C4        -1.5894     2.0580  3005.0274 C.ar     916 DA      0.0000
   1106 H5'       -5.8815     6.6368  3007.2492 H        916 DA      0.0000
   1107 H5''      -5.2112     5.6592  3008.5831 H        916 DA      0.0000
   1108 H4'       -3.3191     6.2668  3007.3925 H        916 DA      0.0000
   1109 H3'       -5.0750     6.5362  3005.1599 H        916 DA      0.0000
   1110 H2'       -4.5151     4.5435  3004.1554 H        916 DA      0.0000
   1111 H2''      -3.0605     5.4545  3003.6440 H        916 DA      0.0000
   1112 H1'       -1.7779     4.6632  3005.4542 H        916 DA      0.0000
   1113 H8        -4.8161     2.2357  3004.9137 H        916 DA      0.0000
   1114 H2         1.6117     1.7722  3005.1348 H        916 DA      0.0000
   1115 H61       -0.5481    -2.1534  3004.6852 H        916 DA      0.0000
   1116 H62       -2.1185    -1.8122  3003.9439 H        916 DA      0.0000
   1117 P         -3.1079     8.2727  3003.9784 P.3      915 DT      0.0000
   1118 OP1       -2.5486     9.6608  3004.0366 O.co2    915 DT      0.0000
   1119 OP2       -4.5082     8.1669  3003.4658 O.co2    915 DT      0.0000
   1120 O5'       -1.9315     7.3243  3003.2753 O.3      915 DT      0.0000
   1121 C5'       -0.9395     6.9750  3004.2876 C.3      915 DT      0.0000
   1122 C4'        0.3419     6.6182  3003.6047 C.3      915 DT      0.0000
   1123 O4'        0.5147     5.2444  3003.4243 O.3      915 DT      0.0000
   1124 C3'        0.5246     7.2714  3002.2434 C.3      915 DT      0.0000
   1125 O3'        1.8813     7.6470  3001.9761 O.3      915 DT      0.0000
   1126 C2'       -0.0314     6.1548  3001.3501 C.3      915 DT      0.0000
   1127 C1'        0.5704     4.9221  3001.9901 C.3      915 DT      0.0000
   1128 N1        -0.2729     3.7340  3001.7601 N.am     915 DT      0.0000
   1129 C2         0.3643     2.5117  3001.6385 C.2      915 DT      0.0000
   1130 O2         1.5929     2.4275  3001.6753 O.2      915 DT      0.0000
   1131 N3        -0.4115     1.3969  3001.4711 N.am     915 DT      0.0000
   1132 C4        -1.7690     1.4660  3001.4226 C.2      915 DT      0.0000
   1133 O4        -2.4064     0.3866  3001.2371 O.2      915 DT      0.0000
   1134 C5        -2.4054     2.7301  3001.5710 C.2      915 DT      0.0000
   1135 C7        -3.9103     2.8452  3001.5189 C.3      915 DT      0.0000
   1136 C6        -1.6339     3.8085  3001.7440 C.2      915 DT      0.0000
   1137 H5'       -0.7771     7.8256  3004.9497 H        915 DT      0.0000
   1138 H5''      -1.2940     6.1229  3004.8677 H        915 DT      0.0000
   1139 H4'        1.1554     6.9655  3004.2417 H        915 DT      0.0000
   1140 H3'       -0.1175     8.1493  3002.1714 H        915 DT      0.0000
   1141 H2'       -1.1206     6.1268  3001.3807 H        915 DT      0.0000
   1142 H2''       0.3225     6.2689  3000.3255 H        915 DT      0.0000
   1143 H1'        1.5948     4.7569  3001.6562 H        915 DT      0.0000
   1144 H3         0.0370     0.4965  3001.3810 H        915 DT      0.0000
   1145 H6        -2.1052     4.7714  3001.8754 H        915 DT      0.0000
   1146 H71       -4.2186     3.1326  3000.5137 H        915 DT      0.0000
   1147 H72       -4.2414     3.6017  3002.2304 H        915 DT      0.0000
   1148 H73       -4.3573     1.8848  3001.7754 H        915 DT      0.0000
   1149 P          2.1655     8.2584  3000.4862 P.3      914 DT      0.0000
   1150 OP1        2.5695     9.7264  3000.6342 O.co2    914 DT      0.0000
   1151 OP2        0.8243     8.1683  2999.8164 O.co2    914 DT      0.0000
   1152 O5'        3.2833     7.4052  2999.8342 O.3      914 DT      0.0000
   1153 C5'        4.3056     6.7507  3000.5856 C.3      914 DT      0.0000
   1154 C4'        4.7259     5.5263  2999.8376 C.3      914 DT      0.0000
   1155 O4'        3.8401     4.4409  2999.7806 O.3      914 DT      0.0000
   1156 C3'        5.1758     5.7064  2998.3715 C.3      914 DT      0.0000
   1157 O3'        6.2025     4.7154  2998.2678 O.3      914 DT      0.0000
   1158 C2'        3.9072     5.3040  2997.6078 C.3      914 DT      0.0000
   1159 C1'        3.6173     4.0354  2998.3835 C.3      914 DT      0.0000
   1160 N1         2.2496     3.5192  2998.2773 N.am     914 DT      0.0000
   1161 C2         2.1331     2.1227  2998.2767 C.2      914 DT      0.0000
   1162 O2         3.1315     1.4009  2998.3198 O.2      914 DT      0.0000
   1163 N3         0.8709     1.6050  2998.2233 N.am     914 DT      0.0000
   1164 C4        -0.2451     2.3857  2998.1635 C.2      914 DT      0.0000
   1165 O4        -1.3725     1.8091  2998.1011 O.2      914 DT      0.0000
   1166 C5        -0.0980     3.7996  2998.1718 C.2      914 DT      0.0000
   1167 C7        -1.3294     4.6791  2998.1103 C.3      914 DT      0.0000
   1168 C6         1.1385     4.3016  2998.2382 C.2      914 DT      0.0000
   1169 H5'        5.1583     7.4187  3000.7078 H        914 DT      0.0000
   1170 H5''       3.9177     6.4679  3001.5641 H        914 DT      0.0000
   1171 H4'        5.6042     5.1539  3000.3648 H        914 DT      0.0000
   1172 H3'        5.5198     6.7151  2998.1428 H        914 DT      0.0000
   1173 H2'        4.0997     5.1121  2996.5522 H        914 DT      0.0000
   1174 H2''       3.1141     6.0400  2997.7394 H        914 DT      0.0000
   1175 H1'        4.3296     3.2589  2998.1045 H        914 DT      0.0000
   1176 H3         0.7593     0.6012  2998.2282 H        914 DT      0.0000
   1177 H6         1.2604     5.3745  2998.2620 H        914 DT      0.0000
   1178 H71       -2.2210     4.0539  2998.0615 H        914 DT      0.0000
   1179 H72       -1.2802     5.3112  2997.2237 H        914 DT      0.0000
   1180 H73       -1.3733     5.3055  2999.0013 H        914 DT      0.0000
   1181 P          7.2389     4.5649  2997.1216 P.3      913 DC      0.0000
   1182 OP1        8.6338     4.4121  2997.7307 O.co2    913 DC      0.0000
   1183 OP2        7.1685     5.8389  2996.3397 O.co2    913 DC      0.0000
   1184 O5'        6.6960     3.2185  2996.3821 O.3      913 DC      0.0000
   1185 C5'        6.9510     1.9705  2997.1067 C.3      913 DC      0.0000
   1186 C4'        7.1892     0.9171  2996.0561 C.3      913 DC      0.0000
   1187 O4'        6.0410     0.1389  2995.8108 O.3      913 DC      0.0000
   1188 C3'        7.6349     1.4457  2994.6917 C.3      913 DC      0.0000
   1189 O3'        8.5294     0.5857  2993.9824 O.3      913 DC      0.0000
   1190 C2'        6.2763     1.6440  2994.0056 C.3      913 DC      0.0000
   1191 C1'        5.4580     0.4757  2994.5522 C.3      913 DC      0.0000
   1192 N1         4.0495     0.9206  2994.6700 N.am     913 DC      0.0000
   1193 C2         3.0708    -0.0721  2994.6872 C.2      913 DC      0.0000
   1194 O2         3.3737    -1.2712  2994.6185 O.2      913 DC      0.0000
   1195 N3         1.7680     0.3344  2994.7904 N.2      913 DC      0.0000
   1196 C4         1.4243     1.6471  2994.8612 C.2      913 DC      0.0000
   1197 N4         0.1393     1.9937  2994.9631 N.pl3    913 DC      0.0000
   1198 C5         2.4429     2.6402  2994.8361 C.2      913 DC      0.0000
   1199 C6         3.7225     2.2399  2994.7425 C.2      913 DC      0.0000
   1200 H5'        7.8300     2.0756  2997.7426 H        913 DC      0.0000
   1201 H5''       6.0831     1.7056  2997.7106 H        913 DC      0.0000
   1202 H4'        7.9692     0.2510  2996.4249 H        913 DC      0.0000
   1203 H3'        8.1094     2.4177  2994.8259 H        913 DC      0.0000
   1204 H2'        6.3703     1.5860  2992.9212 H        913 DC      0.0000
   1205 H2''       5.8324     2.5945  2994.3015 H        913 DC      0.0000
   1206 H1'        5.5238    -0.3741  2993.8728 H        913 DC      0.0000
   1207 H5         2.1940     3.6897  2994.8908 H        913 DC      0.0000
   1208 H6         4.5081     2.9809  2994.7244 H        913 DC      0.0000
   1209 H41       -0.5759     1.2809  2994.9838 H        913 DC      0.0000
   1210 H42       -0.1177     2.9689  2995.0195 H        913 DC      0.0000
   1211 P          8.5543     0.3532  2992.3504 P.3      912 DA      0.0000
   1212 OP1        9.9335    -0.1332  2991.9609 O.co2    912 DA      0.0000
   1213 OP2        8.1737     1.6742  2991.7804 O.co2    912 DA      0.0000
   1214 O5'        7.5329    -0.8625  2992.1849 O.3      912 DA      0.0000
   1215 C5'        7.9673    -2.1991  2992.6503 C.3      912 DA      0.0000
   1216 C4'        7.1346    -3.1184  2991.7730 C.3      912 DA      0.0000
   1217 O4'        5.7417    -2.9119  2992.0404 O.3      912 DA      0.0000
   1218 C3'        7.2876    -2.8317  2990.2686 C.3      912 DA      0.0000
   1219 O3'        6.8159    -3.9123  2989.4796 O.3      912 DA      0.0000
   1220 C2'        6.2503    -1.7093  2990.0812 C.3      912 DA      0.0000
   1221 C1'        5.1141    -2.4522  2990.8358 C.3      912 DA      0.0000
   1222 N9         4.0592    -1.4544  2990.9812 N.ar     912 DA      0.0000
   1223 C8         4.2276    -0.0897  2991.0541 C.ar     912 DA      0.0000
   1224 N7         3.1009     0.5675  2991.1687 N.ar     912 DA      0.0000
   1225 C5         2.1261    -0.4461  2991.1624 C.ar     912 DA      0.0000
   1226 C6         0.7093    -0.3772  2991.2623 C.ar     912 DA      0.0000
   1227 N6         0.0276     0.7654  2991.3851 N.pl3    912 DA      0.0000
   1228 N1         0.0830    -1.5866  2991.2271 N.ar     912 DA      0.0000
   1229 C2         0.7744    -2.7465  2991.1083 C.ar     912 DA      0.0000
   1230 N3         2.1003    -2.8839  2991.0168 N.ar     912 DA      0.0000
   1231 C4         2.7072    -1.6845  2991.0443 C.ar     912 DA      0.0000
   1232 H5'        9.0338    -2.3502  2992.4836 H        912 DA      0.0000
   1233 H5''       7.7180    -2.3405  2993.7020 H        912 DA      0.0000
   1234 H4'        7.3972    -4.1565  2991.9770 H        912 DA      0.0000
   1235 H3'        8.2973    -2.5221  2989.9990 H        912 DA      0.0000
   1236 H2'        6.5416    -0.7759  2990.5628 H        912 DA      0.0000
   1237 H2''       6.0045    -1.5600  2989.0298 H        912 DA      0.0000
   1238 H1'        4.7578    -3.2977  2990.2474 H        912 DA      0.0000
   1239 H8         5.1941     0.3912  2991.0201 H        912 DA      0.0000
   1240 H2         0.1919    -3.6556  2991.0851 H        912 DA      0.0000
   1241 H61        0.5199     1.6469  2991.4099 H        912 DA      0.0000
   1242 H62       -0.9799     0.7476  2991.4532 H        912 DA      0.0000
   1243 P          7.7237    -4.5413  2988.3387 P.3      911 DC      0.0000
   1244 OP1        8.5913    -5.5150  2989.1189 O.co2    911 DC      0.0000
   1245 OP2        8.5019    -3.5311  2987.6131 O.co2    911 DC      0.0000
   1246 O5'        6.5732    -5.1960  2987.3628 O.3      911 DC      0.0000
   1247 C5'        5.5977    -6.0834  2988.0318 C.3      911 DC      0.0000
   1248 C4'        4.2511    -5.8849  2987.3878 C.3      911 DC      0.0000
   1249 O4'        3.4508    -4.8966  2988.0249 O.3      911 DC      0.0000
   1250 C3'        4.3497    -5.4694  2985.9100 C.3      911 DC      0.0000
   1251 O3'        3.2927    -5.9664  2985.0987 O.3      911 DC      0.0000
   1252 C2'        4.1829    -3.9233  2986.0756 C.3      911 DC      0.0000
   1253 C1'        2.8991    -4.0796  2986.9712 C.3      911 DC      0.0000
   1254 N1         2.3885    -2.7548  2987.2091 N.am     911 DC      0.0000
   1255 C2         1.0475    -2.6110  2987.5262 C.2      911 DC      0.0000
   1256 O2         0.1723    -3.4726  2987.6667 O.2      911 DC      0.0000
   1257 N3         0.5673    -1.3462  2987.7245 N.2      911 DC      0.0000
   1258 C4         1.3656    -0.2416  2987.6085 C.2      911 DC      0.0000
   1259 N4         0.8521     0.9795  2987.8245 N.pl3    911 DC      0.0000
   1260 C5         2.7394    -0.4051  2987.2788 C.2      911 DC      0.0000
   1261 C6         3.1856    -1.6520  2987.0871 C.2      911 DC      0.0000
   1262 H5'        5.9090    -7.1221  2987.9203 H        911 DC      0.0000
   1263 H5''       5.5384    -5.8304  2989.0904 H        911 DC      0.0000
   1264 H4'        3.7141    -6.8323  2987.4345 H        911 DC      0.0000
   1265 H3'        5.3240    -5.7211  2985.4909 H        911 DC      0.0000
   1266 H2'        5.0175    -3.4500  2986.5927 H        911 DC      0.0000
   1267 H2''       3.9609    -3.4338  2985.1274 H        911 DC      0.0000
   1268 H1'        2.1522    -4.6570  2986.4263 H        911 DC      0.0000
   1269 H5         3.3983     0.4458  2987.1867 H        911 DC      0.0000
   1270 H6         4.2235    -1.7930  2986.8239 H        911 DC      0.0000
   1271 H41       -0.1235     1.0818  2988.0650 H        911 DC      0.0000
   1272 H42        1.4413     1.7962  2987.7466 H        911 DC      0.0000
   1273 P         -8.8641     4.6701  3021.6978 P.3      921 DG      0.0000
   1274 OP1       -9.6900     5.9027  3021.6963 O.co2    921 DG      0.0000
   1275 OP2       -7.7674     4.8728  3022.7535 O.co2    921 DG      0.0000
   1276 O5'       -9.6341     3.2892  3021.8762 O.3      921 DG      0.0000
   1277 C5'       -9.9862     2.3097  3020.8762 C.3      921 DG      0.0000
   1278 C4'       -9.5483     0.9484  3021.3750 C.3      921 DG      0.0000
   1279 O4'       -8.2401     0.6252  3020.9559 O.3      921 DG      0.0000
   1280 C3'       -9.6007     0.6898  3022.8672 C.3      921 DG      0.0000
   1281 O3'      -10.3765    -0.4985  3023.1792 O.3      921 DG      0.0000
   1282 C2'       -8.1474     0.5859  3023.2891 C.3      921 DG      0.0000
   1283 C1'       -7.4461     0.1273  3022.0335 C.3      921 DG      0.0000
   1284 N9        -6.0683     0.6508  3022.0044 N.ar     921 DG      0.0000
   1285 C8        -5.6159     1.9288  3022.2333 C.ar     921 DG      0.0000
   1286 N7        -4.3117     2.0605  3022.1436 N.ar     921 DG      0.0000
   1287 C5        -3.8704     0.7784  3021.8266 C.ar     921 DG      0.0000
   1288 C6        -2.5731     0.2557  3021.6007 C.2      921 DG      0.0000
   1289 O6        -1.4964     0.8527  3021.6219 O.2      921 DG      0.0000
   1290 N1        -2.5253    -1.0822  3021.3191 N.am     921 DG      0.0000
   1291 C2        -3.5809    -1.8292  3021.2585 C.2      921 DG      0.0000
   1292 N2        -3.2619    -3.0289  3020.9617 N.pl3    921 DG      0.0000
   1293 N3        -4.8983    -1.4086  3021.4672 N.2      921 DG      0.0000
   1294 C4        -4.9371    -0.0964  3021.7398 C.ar     921 DG      0.0000
   1295 H5'      -11.0646     2.3153  3020.7175 H        921 DG      0.0000
   1296 H5''      -9.4761     2.5398  3019.9409 H        921 DG      0.0000
   1297 H4'      -10.2121     0.2194  3020.9103 H        921 DG      0.0000
   1298 H3'      -10.0535     1.5496  3023.3612 H        921 DG      0.0000
   1299 H2'       -7.7669     1.5535  3023.6161 H        921 DG      0.0000
   1300 H2''      -8.0332    -0.1548  3024.0806 H        921 DG      0.0000
   1301 H1'       -7.4255    -0.9620  3022.0015 H        921 DG      0.0000
   1302 H8        -6.2748     2.7522  3022.4664 H        921 DG      0.0000
   1303 H1        -1.6245    -1.5069  3021.1508 H        921 DG      0.0000
   1304 H21       -2.2925    -3.2727  3020.8173 H        921 DG      0.0000
   1305 H22       -3.9789    -3.7345  3020.8713 H        921 DG      0.0000
   1306 P        -10.3696    -1.1707  3024.6077 P.3      922 DT      0.0000
   1307 OP1      -11.6975    -1.6659  3025.1194 O.co2    922 DT      0.0000
   1308 OP2      -10.0129     0.0121  3025.5264 O.co2    922 DT      0.0000
   1309 O5'       -9.2138    -2.2032  3024.6363 O.3      922 DT      0.0000
   1310 C5'       -9.4237    -3.6349  3024.4923 C.3      922 DT      0.0000
   1311 C4'       -8.0333    -4.2322  3024.5498 C.3      922 DT      0.0000
   1312 O4'       -7.0314    -3.2779  3024.2747 O.3      922 DT      0.0000
   1313 C3'       -7.6225    -4.8498  3025.8626 C.3      922 DT      0.0000
   1314 O3'       -7.4447    -6.2614  3025.6744 O.3      922 DT      0.0000
   1315 C2'       -6.3131    -4.1658  3026.2548 C.3      922 DT      0.0000
   1316 C1'       -5.8013    -3.7440  3024.9021 C.3      922 DT      0.0000
   1317 N1        -4.8984    -2.5968  3024.9987 N.am     922 DT      0.0000
   1318 C2        -3.5639    -2.8265  3024.8008 C.2      922 DT      0.0000
   1319 O2        -3.1152    -3.9455  3024.5626 O.2      922 DT      0.0000
   1320 N3        -2.7266    -1.7466  3024.8818 N.am     922 DT      0.0000
   1321 C4        -3.1660    -0.4935  3025.1377 C.2      922 DT      0.0000
   1322 O4        -2.2779     0.3975  3025.1830 O.2      922 DT      0.0000
   1323 C5        -4.5665    -0.2719  3025.3374 C.2      922 DT      0.0000
   1324 C7        -5.0933     1.0980  3025.6173 C.3      922 DT      0.0000
   1325 C6        -5.3780    -1.3340  3025.2559 C.2      922 DT      0.0000
   1326 H5'      -10.0405    -4.0170  3025.3058 H        922 DT      0.0000
   1327 H5''      -9.8890    -3.8534  3023.5312 H        922 DT      0.0000
   1328 H4'       -7.9729    -5.0067  3023.7853 H        922 DT      0.0000
   1329 H3'       -8.3845    -4.6648  3026.6197 H        922 DT      0.0000
   1330 H2'       -6.4873    -3.3074  3026.9036 H        922 DT      0.0000
   1331 H2''      -5.6307    -4.8745  3026.7240 H        922 DT      0.0000
   1332 H1'       -5.3522    -4.5741  3024.3567 H        922 DT      0.0000
   1333 H3        -1.7367    -1.8921  3024.7443 H        922 DT      0.0000
   1334 H6        -6.4398    -1.1947  3025.3963 H        922 DT      0.0000
   1335 H71       -5.5406     1.5079  3024.7118 H        922 DT      0.0000
   1336 H72       -4.2760     1.7419  3025.9421 H        922 DT      0.0000
   1337 H73       -5.8473     1.0439  3026.4026 H        922 DT      0.0000
   1338 P         -7.9297    -7.1404  3026.9543 P.3      923 DG      0.0000
   1339 OP1       -8.5102    -8.3538  3026.2393 O.co2    923 DG      0.0000
   1340 OP2       -8.9066    -6.3748  3027.7079 O.co2    923 DG      0.0000
   1341 O5'       -6.4345    -7.3798  3027.5638 O.3      923 DG      0.0000
   1342 C5'       -5.5192    -7.7749  3026.4733 C.3      923 DG      0.0000
   1343 C4'       -4.1165    -7.6609  3026.9933 C.3      923 DG      0.0000
   1344 O4'       -3.4798    -6.4243  3026.8127 O.3      923 DG      0.0000
   1345 C3'       -4.0151    -7.9971  3028.5013 C.3      923 DG      0.0000
   1346 O3'       -3.0143    -9.0317  3028.6602 O.3      923 DG      0.0000
   1347 C2'       -3.7151    -6.6645  3029.1539 C.3      923 DG      0.0000
   1348 C1'       -2.8996    -5.9657  3028.0724 C.3      923 DG      0.0000
   1349 N9        -2.9251    -4.5086  3028.2419 N.ar     923 DG      0.0000
   1350 C8        -3.9792    -3.7046  3028.5781 C.ar     923 DG      0.0000
   1351 N7        -3.6874    -2.4254  3028.6638 N.ar     923 DG      0.0000
   1352 C5        -2.3344    -2.3914  3028.3338 C.ar     923 DG      0.0000
   1353 C6        -1.4259    -1.2986  3028.2395 C.2      923 DG      0.0000
   1354 O6        -1.6529    -0.0948  3028.4318 O.2      923 DG      0.0000
   1355 N1        -0.1398    -1.6557  3027.9044 N.am     923 DG      0.0000
   1356 C2         0.2132    -2.9515  3027.6807 C.2      923 DG      0.0000
   1357 N2         1.5066    -3.1123  3027.3718 N.pl3    923 DG      0.0000
   1358 N3        -0.5978    -4.0047  3027.7517 N.2      923 DG      0.0000
   1359 C4        -1.8547    -3.6581  3028.0783 C.ar     923 DG      0.0000
   1360 H5'       -5.7215    -8.8029  3026.1728 H        923 DG      0.0000
   1361 H5''      -5.6517    -7.1086  3025.6209 H        923 DG      0.0000
   1362 H4'       -3.5209    -8.4039  3026.4627 H        923 DG      0.0000
   1363 H3'       -4.9775    -8.3661  3028.8561 H        923 DG      0.0000
   1364 H2'       -4.6307    -6.1167  3029.3768 H        923 DG      0.0000
   1365 H2''      -3.1196    -6.8029  3030.0563 H        923 DG      0.0000
   1366 H1'       -1.8671    -6.3098  3028.1313 H        923 DG      0.0000
   1367 H8        -4.9719    -4.0897  3028.7587 H        923 DG      0.0000
   1368 H1         0.5632    -0.9351  3027.8221 H        923 DG      0.0000
   1369 H21        2.1174    -2.3095  3027.3216 H        923 DG      0.0000
   1370 H22        1.8711    -4.0364  3027.1892 H        923 DG      0.0000
   1371 P         -2.7347    -9.6934  3030.0486 P.3      924 DA      0.0000
   1372 OP1       -3.5575   -10.8892  3030.4040 O.co2    924 DA      0.0000
   1373 OP2       -3.2254    -8.4973  3030.9443 O.co2    924 DA      0.0000
   1374 O5'       -1.1693    -9.7398  3030.2977 O.3      924 DA      0.0000
   1375 C5'       -0.1695    -9.7062  3029.2687 C.3      924 DA      0.0000
   1376 C4'        0.8600    -8.6933  3029.7430 C.3      924 DA      0.0000
   1377 O4'        0.3397    -7.3843  3029.6526 O.3      924 DA      0.0000
   1378 C3'        1.3738    -8.8694  3031.1720 C.3      924 DA      0.0000
   1379 O3'        2.8125    -8.7775  3031.2243 O.3      924 DA      0.0000
   1380 C2'        0.6730    -7.7205  3031.9075 C.3      924 DA      0.0000
   1381 C1'        0.7657    -6.6509  3030.8299 C.3      924 DA      0.0000
   1382 N9        -0.1183    -5.5034  3031.0583 N.ar     924 DA      0.0000
   1383 C8        -1.4666    -5.4630  3031.2741 C.ar     924 DA      0.0000
   1384 N7        -1.9435    -4.2493  3031.4390 N.ar     924 DA      0.0000
   1385 C5        -0.8312    -3.4329  3031.2988 C.ar     924 DA      0.0000
   1386 C6        -0.6889    -2.0289  3031.3468 C.ar     924 DA      0.0000
   1387 N6        -1.6920    -1.1755  3031.5666 N.pl3    924 DA      0.0000
   1388 N1         0.5822    -1.5654  3031.1570 N.ar     924 DA      0.0000
   1389 C2         1.6139    -2.4133  3030.9392 C.ar     924 DA      0.0000
   1390 N3         1.5550    -3.7432  3030.8810 N.ar     924 DA      0.0000
   1391 C4         0.2968    -4.1817  3031.0678 C.ar     924 DA      0.0000
   1392 H5'       -0.6070    -9.3907  3028.3215 H        924 DA      0.0000
   1393 H5''       0.2916   -10.6880  3029.1609 H        924 DA      0.0000
   1394 H4'        1.7178    -8.7552  3029.0732 H        924 DA      0.0000
   1395 H3'        1.0444    -9.8278  3031.5735 H        924 DA      0.0000
   1396 H2'       -0.3608    -7.9637  3032.1530 H        924 DA      0.0000
   1397 H2''       1.2291    -7.4286  3032.7984 H        924 DA      0.0000
   1398 H1'        1.7971    -6.3172  3030.7154 H        924 DA      0.0000
   1399 H8        -2.0846    -6.3481  3031.3061 H        924 DA      0.0000
   1400 H2         2.5865    -1.9655  3030.7979 H        924 DA      0.0000
   1401 H61       -2.6725    -1.3974  3031.4692 H        924 DA      0.0000
   1402 H62       -1.5316    -0.1932  3031.3951 H        924 DA      0.0000
   1403 P          3.7019    -9.5548  3032.3658 P.3      925 DA      0.0000
   1404 OP1        4.6322   -10.5373  3031.6987 O.co2    925 DA      0.0000
   1405 OP2        2.6378   -10.1541  3033.1967 O.co2    925 DA      0.0000
   1406 O5'        4.6657    -8.3996  3032.8966 O.3      925 DA      0.0000
   1407 C5'        5.6108    -7.7197  3032.0723 C.3      925 DA      0.0000
   1408 C4'        5.7584    -6.3014  3032.5946 C.3      925 DA      0.0000
   1409 O4'        4.5252    -5.6399  3032.6228 O.3      925 DA      0.0000
   1410 C3'        6.3949    -6.1216  3033.9619 C.3      925 DA      0.0000
   1411 O3'        7.6253    -5.4021  3033.8841 O.3      925 DA      0.0000
   1412 C2'        5.2956    -5.4456  3034.7906 C.3      925 DA      0.0000
   1413 C1'        4.4332    -4.7696  3033.7968 C.3      925 DA      0.0000
   1414 N9         2.9966    -4.5757  3034.0649 N.ar     925 DA      0.0000
   1415 C8         1.9868    -5.5000  3034.1801 C.ar     925 DA      0.0000
   1416 N7         0.7960    -4.9758  3034.3494 N.ar     925 DA      0.0000
   1417 C5         1.0291    -3.6047  3034.3124 C.ar     925 DA      0.0000
   1418 C6         0.1505    -2.4905  3034.4328 C.ar     925 DA      0.0000
   1419 N6        -1.1609    -2.5608  3034.6244 N.pl3    925 DA      0.0000
   1420 N1         0.7419    -1.2559  3034.3346 N.ar     925 DA      0.0000
   1421 C2         2.0887    -1.1436  3034.1456 C.ar     925 DA      0.0000
   1422 N3         2.9627    -2.1379  3034.0377 N.ar     925 DA      0.0000
   1423 C4         2.3674    -3.3440  3034.1296 C.ar     925 DA      0.0000
   1424 H5'        5.2549    -7.6987  3031.0422 H        925 DA      0.0000
   1425 H5''       6.5729    -8.2301  3032.1182 H        925 DA      0.0000
   1426 H4'        6.3864    -5.7669  3031.8819 H        925 DA      0.0000
   1427 H3'        6.5939    -7.1062  3034.3851 H        925 DA      0.0000
   1428 H2'        4.7266    -6.1875  3035.3509 H        925 DA      0.0000
   1429 H2''       5.7324    -4.7139  3035.4702 H        925 DA      0.0000
   1430 H1'        4.8754    -3.8042  3033.5508 H        925 DA      0.0000
   1431 H8         2.1581    -6.5653  3034.1352 H        925 DA      0.0000
   1432 H2         2.4854    -0.1415  3034.0764 H        925 DA      0.0000
   1433 H61       -1.6135    -3.4028  3034.9506 H        925 DA      0.0000
   1434 H62       -1.7256    -1.7445  3034.4376 H        925 DA      0.0000
   1435 P          8.9195    -5.6366  3034.8403 P.3      926 DT      0.0000
   1436 OP1       10.2183    -5.5980  3034.0430 O.co2    926 DT      0.0000
   1437 OP2        8.7422    -6.8162  3035.6609 O.co2    926 DT      0.0000
   1438 O5'        8.9906    -4.2090  3035.6540 O.3      926 DT      0.0000
   1439 C5'        8.6891    -3.0952  3034.7089 C.3      926 DT      0.0000
   1440 C4'        7.7983    -2.1685  3035.4966 C.3      926 DT      0.0000
   1441 O4'        6.4928    -2.6652  3035.6886 O.3      926 DT      0.0000
   1442 C3'        8.3411    -1.9040  3036.9132 C.3      926 DT      0.0000
   1443 O3'        9.0425    -0.6744  3036.9149 O.3      926 DT      0.0000
   1444 C2'        7.1065    -1.9399  3037.8105 C.3      926 DT      0.0000
   1445 C1'        5.9911    -1.8645  3036.8458 C.3      926 DT      0.0000
   1446 N1         4.6818    -2.3985  3037.1856 N.am     926 DT      0.0000
   1447 C2         3.6453    -1.4807  3037.3235 C.2      926 DT      0.0000
   1448 O2         3.8779    -0.2819  3037.2355 O.2      926 DT      0.0000
   1449 N3         2.3940    -1.9556  3037.5775 N.am     926 DT      0.0000
   1450 C4         2.1212    -3.2883  3037.6977 C.2      926 DT      0.0000
   1451 O4         0.9289    -3.6518  3037.9529 O.2      926 DT      0.0000
   1452 C5         3.2007    -4.2162  3037.5261 C.2      926 DT      0.0000
   1453 C7         2.9499    -5.6962  3037.6136 C.3      926 DT      0.0000
   1454 C6         4.4324    -3.7426  3037.2703 C.2      926 DT      0.0000
   1455 H5'        9.6048    -2.5866  3034.4073 H        926 DT      0.0000
   1456 H5''       8.1612    -3.4742  3033.8339 H        926 DT      0.0000
   1457 H4'        7.7331    -1.2177  3034.9675 H        926 DT      0.0000
   1458 H3'        9.0193    -2.7086  3037.1975 H        926 DT      0.0000
   1459 H2'        7.0661    -2.8660  3038.3839 H        926 DT      0.0000
   1460 H2''       7.0937    -1.0774  3038.4769 H        926 DT      0.0000
   1461 H1'        5.8737    -0.8283  3036.5285 H        926 DT      0.0000
   1462 H3         1.6371    -1.2951  3037.6812 H        926 DT      0.0000
   1463 H6         5.2455    -4.4391  3037.1282 H        926 DT      0.0000
   1464 H71        1.8960    -5.8746  3037.8267 H        926 DT      0.0000
   1465 H72        3.2133    -6.1657  3036.6658 H        926 DT      0.0000
   1466 H73        3.5589    -6.1213  3038.4114 H        926 DT      0.0000
   1467 P          9.9444    -0.0648  3038.0215 P.3      927 DT      0.0000
   1468 OP1       10.9292     0.9648  3037.4094 O.co2    927 DT      0.0000
   1469 OP2       10.6593    -1.2047  3038.6515 O.co2    927 DT      0.0000
   1470 O5'        8.9481     0.8300  3038.9038 O.3      927 DT      0.0000
   1471 C5'        8.4856     2.0091  3038.1921 C.3      927 DT      0.0000
   1472 C4'        7.2636     2.5263  3038.8682 C.3      927 DT      0.0000
   1473 O4'        6.1673     1.6206  3038.8449 O.3      927 DT      0.0000
   1474 C3'        7.4730     2.9298  3040.3348 C.3      927 DT      0.0000
   1475 O3'        6.8310     4.1629  3040.5989 O.3      927 DT      0.0000
   1476 C2'        6.7345     1.7869  3041.0712 C.3      927 DT      0.0000
   1477 C1'        5.5201     1.7206  3040.1676 C.3      927 DT      0.0000
   1478 N1         4.7104     0.5537  3040.4653 N.am     927 DT      0.0000
   1479 C2         3.3338     0.7009  3040.5201 C.2      927 DT      0.0000
   1480 O2         2.8456     1.8161  3040.3317 O.2      927 DT      0.0000
   1481 N3         2.5757    -0.4044  3040.7860 N.am     927 DT      0.0000
   1482 C4         3.1287    -1.6309  3040.9931 C.2      927 DT      0.0000
   1483 O4         2.3626    -2.6115  3041.2164 O.2      927 DT      0.0000
   1484 C5         4.5456    -1.7714  3040.9280 C.2      927 DT      0.0000
   1485 C7         5.2296    -3.0908  3041.1379 C.3      927 DT      0.0000
   1486 C6         5.2750    -0.6754  3040.6669 C.2      927 DT      0.0000
   1487 H5'        9.2628     2.7733  3038.2045 H        927 DT      0.0000
   1488 H5''       8.2491     1.7448  3037.1613 H        927 DT      0.0000
   1489 H4'        6.9527     3.4216  3038.3297 H        927 DT      0.0000
   1490 H3'        8.5305     2.9615  3040.5973 H        927 DT      0.0000
   1491 H2'        7.3034     0.8571  3041.0699 H        927 DT      0.0000
   1492 H2''       6.4590     2.0812  3042.0839 H        927 DT      0.0000
   1493 H1'        4.9291     2.6334  3040.2432 H        927 DT      0.0000
   1494 H3         1.5713    -0.3081  3040.8305 H        927 DT      0.0000
   1495 H6         6.3497    -0.7678  3040.6138 H        927 DT      0.0000
   1496 H71        4.4833    -3.8600  3041.3368 H        927 DT      0.0000
   1497 H72        5.7927    -3.3543  3040.2426 H        927 DT      0.0000
   1498 H73        5.9098    -3.0166  3041.9863 H        927 DT      0.0000
   1499 P          7.2437     5.5496  3041.2068 P.3      928 DC      0.0000
   1500 OP1        7.3100     6.6244  3040.1389 O.co2    928 DC      0.0000
   1501 OP2        8.4963     5.2959  3041.9418 O.co2    928 DC      0.0000
   1502 O5'        5.8607     5.8044  3042.0329 O.3      928 DC      0.0000
   1503 C5'        4.8117     5.6315  3041.0106 C.3      928 DC      0.0000
   1504 C4'        3.4890     5.7798  3041.7071 C.3      928 DC      0.0000
   1505 O4'        2.8719     4.5544  3041.9540 O.3      928 DC      0.0000
   1506 C3'        3.5248     6.5891  3042.9986 C.3      928 DC      0.0000
   1507 O3'        2.6225     7.6847  3042.9189 O.3      928 DC      0.0000
   1508 C2'        3.2593     5.5069  3044.0473 C.3      928 DC      0.0000
   1509 C1'        2.4275     4.5040  3043.3509 C.3      928 DC      0.0000
   1510 N1         2.6620     3.0952  3043.6830 N.am     928 DC      0.0000
   1511 C2         1.5243     2.3329  3043.9388 C.2      928 DC      0.0000
   1512 O2         0.3984     2.8400  3043.9433 O.2      928 DC      0.0000
   1513 N3         1.7046     0.9996  3044.2126 N.2      928 DC      0.0000
   1514 C4         2.9448     0.4319  3044.2027 C.2      928 DC      0.0000
   1515 N4         3.0160    -0.8654  3044.4796 N.pl3    928 DC      0.0000
   1516 C5         4.0875     1.2138  3043.9247 C.2      928 DC      0.0000
   1517 C6         3.8940     2.5222  3043.6599 C.2      928 DC      0.0000
   1518 H5'        4.9143     6.3924  3040.2369 H        928 DC      0.0000
   1519 H5''       4.8872     4.6390  3040.5664 H        928 DC      0.0000
   1520 H4'        2.8375     6.3212  3041.0211 H        928 DC      0.0000
   1521 H3'        4.5337     6.9759  3043.1418 H        928 DC      0.0000
   1522 H2'        4.1951     5.0618  3044.3852 H        928 DC      0.0000
   1523 H2''       2.7145     5.9269  3044.8929 H        928 DC      0.0000
   1524 H1'        1.3692     4.7520  3043.4319 H        928 DC      0.0000
   1525 H5         5.0772     0.7814  3043.9241 H        928 DC      0.0000
   1526 H6         4.7492     3.1368  3043.4209 H        928 DC      0.0000
   1527 H41        2.1739    -1.3863  3044.6788 H        928 DC      0.0000
   1528 H42        3.9123    -1.3309  3044.4909 H        928 DC      0.0000
   1529 P          2.6196     8.9988  3043.8709 P.3      929 DA      0.0000
   1530 OP1        1.9765    10.1198  3043.0772 O.co2    929 DA      0.0000
   1531 OP2        4.0218     9.3092  3044.2165 O.co2    929 DA      0.0000
   1532 O5'        1.7130     8.5470  3045.1679 O.3      929 DA      0.0000
   1533 C5'        0.3922     7.9981  3044.8727 C.3      929 DA      0.0000
   1534 C4'       -0.2751     7.5402  3046.1280 C.3      929 DA      0.0000
   1535 O4'       -0.2117     6.1315  3046.3701 O.3      929 DA      0.0000
   1536 C3'        0.2955     8.1196  3047.4332 C.3      929 DA      0.0000
   1537 O3'       -0.6849     7.9737  3048.4631 O.3      929 DA      0.0000
   1538 C2'        1.4687     7.1426  3047.6478 C.3      929 DA      0.0000
   1539 C1'        0.6589     5.8546  3047.4645 C.3      929 DA      0.0000
   1540 N9         1.5695     4.7261  3047.3702 N.ar     929 DA      0.0000
   1541 C8         2.9314     4.6881  3047.2544 C.ar     929 DA      0.0000
   1542 N7         3.4561     3.4759  3047.2358 N.ar     929 DA      0.0000
   1543 C5         2.3465     2.6494  3047.3433 C.ar     929 DA      0.0000
   1544 C6         2.2130     1.2395  3047.3778 C.ar     929 DA      0.0000
   1545 N6         3.2205     0.3894  3047.2926 N.pl3    929 DA      0.0000
   1546 N1         0.9418     0.7588  3047.5104 N.ar     929 DA      0.0000
   1547 C2        -0.1325     1.6044  3047.5906 C.ar     929 DA      0.0000
   1548 N3        -0.0875     2.9343  3047.5608 N.ar     929 DA      0.0000
   1549 C4         1.1819     3.3938  3047.4377 C.ar     929 DA      0.0000
   1550 H5'       -0.2191     8.7677  3044.4016 H        929 DA      0.0000
   1551 H5''       0.4968     7.1536  3044.1914 H        929 DA      0.0000
   1552 H4'       -1.3264     7.8219  3046.0691 H        929 DA      0.0000
   1553 H3'        0.6288     9.1511  3047.3196 H        929 DA      0.0000
   1554 H2'        2.2507     7.2559  3046.8970 H        929 DA      0.0000
   1555 H2''       1.8717     7.2195  3048.6577 H        929 DA      0.0000
   1556 H1'        0.0447     5.7158  3048.3542 H        929 DA      0.0000
   1557 H8         3.5332     5.5821  3047.1834 H        929 DA      0.0000
   1558 H2        -1.1073     1.1496  3047.6871 H        929 DA      0.0000
   1559 H61        3.3241    -0.5990  3047.4726 H        929 DA      0.0000
   1560 H62        4.0762     0.8238  3046.9779 H        929 DA      0.0000
   1561 P         -1.9059     8.9983  3048.6036 P.3      930 DC      0.0000
   1562 OP1       -2.1678     9.7744  3047.3585 O.co2    930 DC      0.0000
   1563 OP2       -1.4626     9.8652  3049.7465 O.co2    930 DC      0.0000
   1564 O5'       -3.1457     8.0511  3048.8868 O.3      930 DC      0.0000
   1565 C5'       -3.8459     7.3748  3047.7991 C.3      930 DC      0.0000
   1566 C4'       -4.3665     6.1171  3048.5040 C.3      930 DC      0.0000
   1567 O4'       -3.2494     5.3175  3048.8160 O.3      930 DC      0.0000
   1568 C3'       -5.0961     6.4030  3049.8139 C.3      930 DC      0.0000
   1569 O3'       -6.3971     5.7764  3049.8818 O.3      930 DC      0.0000
   1570 C2'       -4.1255     5.9065  3050.8961 C.3      930 DC      0.0000
   1571 C1'       -3.4357     4.7919  3050.2200 C.3      930 DC      0.0000
   1572 N1        -2.0696     4.4143  3050.5728 N.am     930 DC      0.0000
   1573 C2        -1.8079     3.0457  3050.5459 C.2      930 DC      0.0000
   1574 O2        -2.6785     2.2097  3050.3390 O.2      930 DC      0.0000
   1575 N3        -0.5320     2.6484  3050.7990 N.2      930 DC      0.0000
   1576 C4         0.4715     3.5285  3051.0324 C.2      930 DC      0.0000
   1577 N4         1.6796     3.0180  3051.2633 N.pl3    930 DC      0.0000
   1578 C5         0.1946     4.9234  3051.0389 C.2      930 DC      0.0000
   1579 C6        -1.0667     5.3079  3050.7895 C.2      930 DC      0.0000
   1580 H5'       -4.6646     7.9827  3047.4142 H        930 DC      0.0000
   1581 H5''      -3.1532     7.1103  3047.0000 H        930 DC      0.0000
   1582 H4'       -5.0278     5.5709  3047.8313 H        930 DC      0.0000
   1583 H3'       -5.2192     7.4809  3049.9198 H        930 DC      0.0000
   1584 H2'       -3.4225     6.6885  3051.1831 H        930 DC      0.0000
   1585 H2''      -4.6739     5.5461  3051.7664 H        930 DC      0.0000
   1586 H1'       -4.0756     3.9096  3050.2067 H        930 DC      0.0000
   1587 H5         0.9713     5.6470  3051.2374 H        930 DC      0.0000
   1588 H6        -1.2936     6.3633  3050.7598 H        930 DC      0.0000
   1589 H41        1.8154     2.0173  3051.2523 H        930 DC      0.0000
   1590 H42        2.4599     3.6316  3051.4494 H        930 DC      0.0000
   1591 P          5.3107    -6.6214  3052.8413 P.3      930 DG      0.0000
   1592 OP1        6.2911    -7.7367  3053.0201 O.co2    930 DG      0.0000
   1593 OP2        5.7214    -5.6345  3051.7565 O.co2    930 DG      0.0000
   1594 O5'        3.8029    -7.2481  3052.6341 O.3      930 DG      0.0000
   1595 C5'        2.8333    -7.1533  3053.7299 C.3      930 DG      0.0000
   1596 C4'        1.4715    -6.8801  3053.0956 C.3      930 DG      0.0000
   1597 O4'        1.2026    -5.5080  3052.9998 O.3      930 DG      0.0000
   1598 C3'        1.3040    -7.4494  3051.6892 C.3      930 DG      0.0000
   1599 O3'       -0.0038    -8.0065  3051.4223 O.3      930 DG      0.0000
   1600 C2'        1.5953    -6.2367  3050.7870 C.3      930 DG      0.0000
   1601 C1'        0.9833    -5.1160  3051.6108 C.3      930 DG      0.0000
   1602 N9         1.6505    -3.8316  3051.3375 N.ar     930 DG      0.0000
   1603 C8         2.9954    -3.5945  3051.1808 C.ar     930 DG      0.0000
   1604 N7         3.2916    -2.3408  3050.9624 N.ar     930 DG      0.0000
   1605 C5         2.0576    -1.7017  3050.9872 C.ar     930 DG      0.0000
   1606 C6         1.7065    -0.3343  3050.8307 C.2      930 DG      0.0000
   1607 O6         2.4831     0.6113  3050.6339 O.2      930 DG      0.0000
   1608 N1         0.3594    -0.0832  3050.9177 N.am     930 DG      0.0000
   1609 C2        -0.5545    -1.0598  3051.1383 C.2      930 DG      0.0000
   1610 N2        -1.8236    -0.6661  3051.2017 N.pl3    930 DG      0.0000
   1611 N3        -0.2776    -2.3599  3051.2961 N.2      930 DG      0.0000
   1612 C4         1.0444    -2.6056  3051.2128 C.ar     930 DG      0.0000
   1613 H5'        2.8057    -8.0894  3054.2876 H        930 DG      0.0000
   1614 H5''       3.1040    -6.3332  3054.3948 H        930 DG      0.0000
   1615 H4'        0.7086    -7.3281  3053.7323 H        930 DG      0.0000
   1616 H3'        2.0618    -8.2142  3051.5188 H        930 DG      0.0000
   1617 H2'        2.6661    -6.0910  3050.6443 H        930 DG      0.0000
   1618 H2''       1.0864    -6.3356  3049.8282 H        930 DG      0.0000
   1619 H1'       -0.0843    -5.0371  3051.4055 H        930 DG      0.0000
   1620 H8         3.7405    -4.3745  3051.2336 H        930 DG      0.0000
   1621 H1         0.0362     0.8679  3050.8129 H        930 DG      0.0000
   1622 H21       -2.0559     0.3100  3051.0866 H        930 DG      0.0000
   1623 H22       -2.5548    -1.3434  3051.3648 H        930 DG      0.0000
   1624 P         -0.4942    -7.9258  3049.8988 P.3      929 DT      0.0000
   1625 OP1       -1.4435    -9.0262  3049.5079 O.co2    929 DT      0.0000
   1626 OP2        0.8063    -8.0639  3049.1982 O.co2    929 DT      0.0000
   1627 O5'       -1.2184    -6.5025  3049.7679 O.3      929 DT      0.0000
   1628 C5'       -2.6568    -6.4677  3050.0355 C.3      929 DT      0.0000
   1629 C4'       -3.2561    -5.3026  3049.2785 C.3      929 DT      0.0000
   1630 O4'       -2.4090    -4.1677  3049.2512 O.3      929 DT      0.0000
   1631 C3'       -3.5573    -5.6284  3047.8238 C.3      929 DT      0.0000
   1632 O3'       -4.7776    -5.0357  3047.3286 O.3      929 DT      0.0000
   1633 C2'       -2.3393    -5.0974  3047.1009 C.3      929 DT      0.0000
   1634 C1'       -2.1317    -3.8086  3047.8790 C.3      929 DT      0.0000
   1635 N1        -0.7138    -3.4461  3047.7277 N.am     929 DT      0.0000
   1636 C2        -0.4108    -2.0925  3047.8345 C.2      929 DT      0.0000
   1637 O2        -1.3000    -1.2695  3048.0242 O.2      929 DT      0.0000
   1638 N3         0.9033    -1.7358  3047.7143 N.am     929 DT      0.0000
   1639 C4         1.8835    -2.6572  3047.4967 C.2      929 DT      0.0000
   1640 O4         3.0808    -2.2286  3047.3992 O.2      929 DT      0.0000
   1641 C5         1.5424    -4.0358  3047.3903 C.2      929 DT      0.0000
   1642 C7         2.6157    -5.0610  3047.1614 C.3      929 DT      0.0000
   1643 C6         0.2573    -4.3785  3047.5121 C.2      929 DT      0.0000
   1644 H5'       -3.1157    -7.3984  3049.7018 H        929 DT      0.0000
   1645 H5''      -2.8278    -6.3374  3051.1041 H        929 DT      0.0000
   1646 H4'       -4.1893    -5.0213  3049.7664 H        929 DT      0.0000
   1647 H3'       -3.6064    -6.7102  3047.6998 H        929 DT      0.0000
   1648 H2'       -1.4864    -5.7699  3047.1925 H        929 DT      0.0000
   1649 H2''      -2.5643    -4.8909  3046.0545 H        929 DT      0.0000
   1650 H1'       -2.7911    -3.0147  3047.5284 H        929 DT      0.0000
   1651 H3         1.1552    -0.7606  3047.7890 H        929 DT      0.0000
   1652 H6        -0.0194    -5.4198  3047.4380 H        929 DT      0.0000
   1653 H71        3.5838    -4.5651  3047.0927 H        929 DT      0.0000
   1654 H72        2.6272    -5.7664  3047.9923 H        929 DT      0.0000
   1655 H73        2.4149    -5.5962  3046.2333 H        929 DT      0.0000
   1656 P         -5.6219    -6.2339  3046.5503 P.3      928 DG      0.0000
   1657 OP1       -6.6271    -6.9141  3047.4215 O.co2    928 DG      0.0000
   1658 OP2       -4.4737    -7.0827  3046.1447 O.co2    928 DG      0.0000
   1659 O5'       -6.4225    -5.3705  3045.4694 O.3      928 DG      0.0000
   1660 C5'       -7.6002    -4.6380  3045.8929 C.3      928 DG      0.0000
   1661 C4'       -7.3485    -3.2037  3045.4452 C.3      928 DG      0.0000
   1662 O4'       -6.0069    -2.8501  3045.7159 O.3      928 DG      0.0000
   1663 C3'       -7.5969    -2.9548  3043.9574 C.3      928 DG      0.0000
   1664 O3'       -8.5351    -1.9144  3043.7489 O.3      928 DG      0.0000
   1665 C2'       -6.2133    -2.7130  3043.3807 C.3      928 DG      0.0000
   1666 C1'       -5.4463    -2.1780  3044.5669 C.3      928 DG      0.0000
   1667 N9        -4.0167    -2.4752  3044.4433 N.ar     928 DG      0.0000
   1668 C8        -3.4138    -3.6908  3044.2844 C.ar     928 DG      0.0000
   1669 N7        -2.1070    -3.6255  3044.2064 N.ar     928 DG      0.0000
   1670 C5        -1.8275    -2.2690  3044.3439 C.ar     928 DG      0.0000
   1671 C6        -0.6028    -1.5505  3044.3534 C.2      928 DG      0.0000
   1672 O6         0.5287    -2.0142  3044.2543 O.2      928 DG      0.0000
   1673 N1        -0.7377    -0.1994  3044.5024 N.am     928 DG      0.0000
   1674 C2        -1.9660     0.4015  3044.6352 C.2      928 DG      0.0000
   1675 N2        -1.9538     1.7279  3044.7709 N.pl3    928 DG      0.0000
   1676 N3        -3.1527    -0.2140  3044.6395 N.2      928 DG      0.0000
   1677 C4        -3.0032    -1.5522  3044.4888 C.ar     928 DG      0.0000
   1678 H5'       -8.4939    -5.0382  3045.4142 H        928 DG      0.0000
   1679 H5''      -7.7018    -4.6820  3046.9773 H        928 DG      0.0000
   1680 H4'       -8.0006    -2.5446  3046.0182 H        928 DG      0.0000
   1681 H3'       -7.9960    -3.8693  3043.5189 H        928 DG      0.0000
   1682 H2'       -5.7730    -3.6404  3043.0144 H        928 DG      0.0000
   1683 H2''      -6.2552    -1.9690  3042.5852 H        928 DG      0.0000
   1684 H1'       -5.5973    -1.1020  3044.6539 H        928 DG      0.0000
   1685 H8        -3.9628    -4.6192  3044.2284 H        928 DG      0.0000
   1686 H1         0.0922     0.3762  3044.5152 H        928 DG      0.0000
   1687 H21       -1.0760     2.2274  3044.7719 H        928 DG      0.0000
   1688 H22       -2.8224     2.2331  3044.8727 H        928 DG      0.0000
   1689 P         -8.5663    -0.5932  3042.8826 P.3      927 DA      0.0000
   1690 OP1       -9.2526     0.5345  3043.6640 O.co2    927 DA      0.0000
   1691 OP2       -9.3443    -0.9361  3041.6899 O.co2    927 DA      0.0000
   1692 O5'       -7.0151    -0.1270  3042.7078 O.3      927 DA      0.0000
   1693 C5'       -6.5523     0.6666  3043.8643 C.3      927 DA      0.0000
   1694 C4'       -6.2117     2.0383  3043.3365 C.3      927 DA      0.0000
   1695 O4'       -4.8340     2.2019  3043.1142 O.3      927 DA      0.0000
   1696 C3'       -6.8790     2.3434  3041.9960 C.3      927 DA      0.0000
   1697 O3'       -7.3625     3.6632  3041.9208 O.3      927 DA      0.0000
   1698 C2'       -5.8132     1.9241  3040.9994 C.3      927 DA      0.0000
   1699 C1'       -4.4982     2.0043  3041.7233 C.3      927 DA      0.0000
   1700 N9        -3.6792     0.8011  3041.4978 N.ar     927 DA      0.0000
   1701 C8        -4.0871    -0.5020  3041.3114 C.ar     927 DA      0.0000
   1702 N7        -3.1069    -1.3536  3041.1155 N.ar     927 DA      0.0000
   1703 C5        -1.9718    -0.5572  3041.2024 C.ar     927 DA      0.0000
   1704 C6        -0.5971    -0.8729  3041.0967 C.ar     927 DA      0.0000
   1705 N6        -0.1368    -2.0931  3040.8842 N.pl3    927 DA      0.0000
   1706 N1         0.2681     0.1713  3041.2204 N.ar     927 DA      0.0000
   1707 C2        -0.1789     1.4422  3041.4450 C.ar     927 DA      0.0000
   1708 N3        -1.4548     1.8048  3041.5608 N.ar     927 DA      0.0000
   1709 C4        -2.3050     0.7586  3041.4247 C.ar     927 DA      0.0000
   1710 H5'       -7.3419     0.7369  3044.6124 H        927 DA      0.0000
   1711 H5''      -5.6663     0.2057  3044.3010 H        927 DA      0.0000
   1712 H4'       -6.5373     2.7816  3044.0642 H        927 DA      0.0000
   1713 H3'       -7.7276     1.6687  3041.8829 H        927 DA      0.0000
   1714 H2'       -5.8131     2.5978  3040.1426 H        927 DA      0.0000
   1715 H2''      -5.9945     0.9014  3040.6689 H        927 DA      0.0000
   1716 H1'       -3.9508     2.8761  3041.3651 H        927 DA      0.0000
   1717 H8        -5.1257    -0.7980  3041.3253 H        927 DA      0.0000
   1718 H2         0.5658     2.2190  3041.5362 H        927 DA      0.0000
   1719 H61        0.7828    -2.3670  3041.1997 H        927 DA      0.0000
   1720 H62       -0.7148    -2.7637  3040.3980 H        927 DA      0.0000
   1721 P         -7.3688     4.7089  3040.7362 P.3      926 DA      0.0000
   1722 OP1       -7.7762     6.1184  3041.2561 O.co2    926 DA      0.0000
   1723 OP2       -8.4264     4.2107  3039.8025 O.co2    926 DA      0.0000
   1724 O5'       -5.8833     4.8597  3040.2335 O.3      926 DA      0.0000
   1725 C5'       -5.0770     5.9657  3040.6894 C.3      926 DA      0.0000
   1726 C4'       -3.7409     5.8570  3039.9874 C.3      926 DA      0.0000
   1727 O4'       -3.2588     4.5491  3039.8667 O.3      926 DA      0.0000
   1728 C3'       -3.7420     6.4518  3038.5799 C.3      926 DA      0.0000
   1729 O3'       -2.8866     7.6099  3038.5485 O.3      926 DA      0.0000
   1730 C2'       -3.3925     5.2649  3037.6803 C.3      926 DA      0.0000
   1731 C1'       -2.5801     4.3817  3038.5781 C.3      926 DA      0.0000
   1732 N9        -2.6006     2.9537  3038.2785 N.ar     926 DA      0.0000
   1733 C8        -3.6807     2.1178  3038.0838 C.ar     926 DA      0.0000
   1734 N7        -3.3494     0.8626  3037.8783 N.ar     926 DA      0.0000
   1735 C5        -1.9702     0.8605  3037.9529 C.ar     926 DA      0.0000
   1736 C6        -1.0197    -0.1763  3037.8194 C.ar     926 DA      0.0000
   1737 N6        -1.3365    -1.4445  3037.5762 N.pl3    926 DA      0.0000
   1738 N1         0.2888     0.2080  3037.9682 N.ar     926 DA      0.0000
   1739 C2         0.6396     1.4837  3038.2208 C.ar     926 DA      0.0000
   1740 N3        -0.2011     2.5133  3038.3596 N.ar     926 DA      0.0000
   1741 C4        -1.4894     2.1315  3038.2124 C.ar     926 DA      0.0000
   1742 H5'       -5.5581     6.9098  3040.4342 H        926 DA      0.0000
   1743 H5''      -4.9353     5.9014  3041.7682 H        926 DA      0.0000
   1744 H4'       -3.0163     6.4181  3040.5776 H        926 DA      0.0000
   1745 H3'       -4.7574     6.7709  3038.3449 H        926 DA      0.0000
   1746 H2'       -4.2932     4.7537  3037.3405 H        926 DA      0.0000
   1747 H2''      -2.7968     5.5943  3036.8290 H        926 DA      0.0000
   1748 H1'       -1.5534     4.7427  3038.6392 H        926 DA      0.0000
   1749 H8        -4.7039     2.4629  3038.0988 H        926 DA      0.0000
   1750 H2         1.6944     1.6932  3038.3198 H        926 DA      0.0000
   1751 H61       -0.6502    -2.1248  3037.8702 H        926 DA      0.0000
   1752 H62       -2.2025    -1.7091  3037.1289 H        926 DA      0.0000
   1753 P         -2.7097     8.4115  3037.1635 P.3      925 DT      0.0000
   1754 OP1       -2.0848     9.7714  3037.2216 O.co2    925 DT      0.0000
   1755 OP2       -4.1134     8.3727  3036.6509 O.co2    925 DT      0.0000
   1756 O5'       -1.5798     7.4081  3036.4603 O.3      925 DT      0.0000
   1757 C5'       -0.6057     7.0119  3037.4727 C.3      925 DT      0.0000
   1758 C4'        0.6573     6.5944  3036.7897 C.3      925 DT      0.0000
   1759 O4'        0.7643     5.2139  3036.6093 O.3      925 DT      0.0000
   1760 C3'        0.8709     7.2381  3035.4285 C.3      925 DT      0.0000
   1761 O3'        2.2440     7.5485  3035.1612 O.3      925 DT      0.0000
   1762 C2'        0.2623     6.1493  3034.5351 C.3      925 DT      0.0000
   1763 C1'        0.8046     4.8893  3035.1751 C.3      925 DT      0.0000
   1764 N1        -0.0945     3.7428  3034.9452 N.am     925 DT      0.0000
   1765 C2         0.4838     2.4915  3034.8236 C.2      925 DT      0.0000
   1766 O2         1.7069     2.3487  3034.8603 O.2      925 DT      0.0000
   1767 N3        -0.3444     1.4150  3034.6561 N.am     925 DT      0.0000
   1768 C4        -1.6970     1.5488  3034.6076 C.2      925 DT      0.0000
   1769 O4        -2.3852     0.5010  3034.4221 O.2      925 DT      0.0000
   1770 C5        -2.2724     2.8418  3034.7560 C.2      925 DT      0.0000
   1771 C7        -3.7701     3.0285  3034.7039 C.3      925 DT      0.0000
   1772 C6        -1.4504     3.8821  3034.9290 C.2      925 DT      0.0000
   1773 H5'       -0.4028     7.8537  3038.1348 H        925 DT      0.0000
   1774 H5''      -1.0004     6.1777  3038.0527 H        925 DT      0.0000
   1775 H4'        1.4864     6.9024  3037.4267 H        925 DT      0.0000
   1776 H3'        0.2715     8.1456  3035.3564 H        925 DT      0.0000
   1777 H2'       -0.8270     6.1733  3034.5657 H        925 DT      0.0000
   1778 H2''       0.6212     6.2463  3033.5105 H        925 DT      0.0000
   1779 H1'        1.8200     4.6754  3034.8412 H        925 DT      0.0000
   1780 H3         0.0607     0.4941  3034.5660 H        925 DT      0.0000
   1781 H6        -1.8752     4.8664  3035.0604 H        925 DT      0.0000
   1782 H71       -4.0644     3.3303  3033.6987 H        925 DT      0.0000
   1783 H72       -4.0648     3.7999  3035.4155 H        925 DT      0.0000
   1784 H73       -4.2624     2.0905  3034.9604 H        925 DT      0.0000
   1785 P          2.5570     8.1456  3033.6713 P.3      924 DT      0.0000
   1786 OP1        3.0306     9.5928  3033.8192 O.co2    924 DT      0.0000
   1787 OP2        1.2131     8.1196  3033.0014 O.co2    924 DT      0.0000
   1788 O5'        3.6329     7.2402  3033.0192 O.3      924 DT      0.0000
   1789 C5'        4.6228     6.5376  3033.7706 C.3      924 DT      0.0000
   1790 C4'        4.9842     5.2945  3033.0226 C.3      924 DT      0.0000
   1791 O4'        4.0476     4.2526  3032.9656 O.3      924 DT      0.0000
   1792 C3'        5.4422     5.4530  3031.5566 C.3      924 DT      0.0000
   1793 O3'        6.4204     4.4141  3031.4528 O.3      924 DT      0.0000
   1794 C2'        4.1558     5.1116  3030.7928 C.3      924 DT      0.0000
   1795 C1'        3.8057     3.8582  3031.5686 C.3      924 DT      0.0000
   1796 N1         2.4150     3.4078  3031.4624 N.am     924 DT      0.0000
   1797 C2         2.2319     2.0185  3031.4618 C.2      924 DT      0.0000
   1798 O2         3.1948     1.2499  3031.5048 O.2      924 DT      0.0000
   1799 N3         0.9465     1.5616  3031.4083 N.am     924 DT      0.0000
   1800 C4        -0.1310     2.3946  3031.3486 C.2      924 DT      0.0000
   1801 O4        -1.2846     1.8725  3031.2862 O.2      924 DT      0.0000
   1802 C5         0.0833     3.7999  3031.3568 C.2      924 DT      0.0000
   1803 C7        -1.1047     4.7372  3031.2954 C.3      924 DT      0.0000
   1804 C6         1.3424     4.2424  3031.4233 C.2      924 DT      0.0000
   1805 H5'        5.5063     7.1641  3033.8928 H        924 DT      0.0000
   1806 H5''       4.2219     6.2736  3034.7492 H        924 DT      0.0000
   1807 H4'        5.8437     4.8806  3033.5499 H        924 DT      0.0000
   1808 H3'        5.8339     6.4441  3031.3279 H        924 DT      0.0000
   1809 H2'        4.3389     4.9106  3029.7373 H        924 DT      0.0000
   1810 H2''       3.3988     5.8846  3030.9244 H        924 DT      0.0000
   1811 H1'        4.4801     3.0486  3031.2895 H        924 DT      0.0000
   1812 H3         0.7871     0.5643  3031.4132 H        924 DT      0.0000
   1813 H6         1.5153     5.3082  3031.4470 H        924 DT      0.0000
   1814 H71       -2.0251     4.1553  3031.2466 H        924 DT      0.0000
   1815 H72       -1.0254     5.3663  3030.4088 H        924 DT      0.0000
   1816 H73       -1.1186     5.3650  3032.1863 H        924 DT      0.0000
   1817 P          7.4484     4.2143  3030.3066 P.3      923 DC      0.0000
   1818 OP1        8.8345     3.9952  3030.9157 O.co2    923 DC      0.0000
   1819 OP2        7.4389     5.4903  3029.5247 O.co2    923 DC      0.0000
   1820 O5'        6.8419     2.8953  3029.5672 O.3      923 DC      0.0000
   1821 C5'        7.0371     1.6366  3030.2917 C.3      923 DC      0.0000
   1822 C4'        7.2248     0.5731  3029.2412 C.3      923 DC      0.0000
   1823 O4'        6.0407    -0.1495  3028.9959 O.3      923 DC      0.0000
   1824 C3'        7.6952     1.0798  3027.8767 C.3      923 DC      0.0000
   1825 O3'        8.5477     0.1781  3027.1675 O.3      923 DC      0.0000
   1826 C2'        6.3476     1.3427  3027.1906 C.3      923 DC      0.0000
   1827 C1'        5.4745     0.2148  3027.7372 C.3      923 DC      0.0000
   1828 N1         4.0888     0.7264  3027.8550 N.am     923 DC      0.0000
   1829 C2         3.0639    -0.2186  3027.8722 C.2      923 DC      0.0000
   1830 O2         3.3092    -1.4308  3027.8036 O.2      923 DC      0.0000
   1831 N3         1.7819     0.2497  3027.9755 N.2      923 DC      0.0000
   1832 C4         1.5013     1.5772  3028.0462 C.2      923 DC      0.0000
   1833 N4         0.2343     1.9848  3028.1482 N.pl3    923 DC      0.0000
   1834 C5         2.5661     2.5206  3028.0211 C.2      923 DC      0.0000
   1835 C6         3.8252     2.0598  3027.9275 C.2      923 DC      0.0000
   1836 H5'        7.9201     1.6997  3030.9277 H        923 DC      0.0000
   1837 H5''       6.1575     1.4135  3030.8956 H        923 DC      0.0000
   1838 H4'        7.9721    -0.1295  3029.6099 H        923 DC      0.0000
   1839 H3'        8.2155     2.0280  3028.0109 H        923 DC      0.0000
   1840 H2'        6.4387     1.2803  3026.1062 H        923 DC      0.0000
   1841 H2''       5.9496     2.3133  3027.4866 H        923 DC      0.0000
   1842 H1'        5.4997    -0.6372  3027.0578 H        923 DC      0.0000
   1843 H5         2.3675     3.5808  3028.0759 H        923 DC      0.0000
   1844 H6         4.6452     2.7624  3027.9094 H        923 DC      0.0000
   1845 H41       -0.5142     1.3069  3028.1688 H        923 DC      0.0000
   1846 H42        0.0241     2.9711  3028.2045 H        923 DC      0.0000
   1847 P          8.5614    -0.0553  3025.5355 P.3      922 DA      0.0000
   1848 OP1        9.9158    -0.6070  3025.1460 O.co2    922 DA      0.0000
   1849 OP2        8.2443     1.2823  3024.9654 O.co2    922 DA      0.0000
   1850 O5'        7.4832    -1.2209  3025.3699 O.3      922 DA      0.0000
   1851 C5'        7.8533    -2.5767  3025.8353 C.3      922 DA      0.0000
   1852 C4'        6.9777    -3.4552  3024.9581 C.3      922 DA      0.0000
   1853 O4'        5.5962    -3.1826  3025.2254 O.3      922 DA      0.0000
   1854 C3'        7.1442    -3.1762  3023.4537 C.3      922 DA      0.0000
   1855 O3'        6.6215    -4.2330  3022.6646 O.3      922 DA      0.0000
   1856 C2'        6.1616    -2.0056  3023.2662 C.3      922 DA      0.0000
   1857 C1'        4.9913    -2.6934  3024.0209 C.3      922 DA      0.0000
   1858 N9         3.9852    -1.6464  3024.1663 N.ar     922 DA      0.0000
   1859 C8         4.2185    -0.2913  3024.2391 C.ar     922 DA      0.0000
   1860 N7         3.1245     0.4189  3024.3538 N.ar     922 DA      0.0000
   1861 C5         2.1024    -0.5471  3024.3474 C.ar     922 DA      0.0000
   1862 C6         0.6905    -0.4106  3024.4473 C.ar     922 DA      0.0000
   1863 N6         0.0641     0.7632  3024.5702 N.pl3    922 DA      0.0000
   1864 N1         0.0072    -1.5888  3024.4122 N.ar     922 DA      0.0000
   1865 C2         0.6424    -2.7803  3024.2933 C.ar     922 DA      0.0000
   1866 N3         1.9603    -2.9808  3024.2018 N.ar     922 DA      0.0000
   1867 C4         2.6237    -1.8117  3024.2294 C.ar     922 DA      0.0000
   1868 H5'        8.9114    -2.7785  3025.6686 H        922 DA      0.0000
   1869 H5''       7.5976    -2.7060  3026.8870 H        922 DA      0.0000
   1870 H4'        7.1904    -4.5047  3025.1620 H        922 DA      0.0000
   1871 H3'        8.1675    -2.9151  3023.1840 H        922 DA      0.0000
   1872 H2'        6.4971    -1.0871  3023.7478 H        922 DA      0.0000
   1873 H2''       5.9232    -1.8447  3022.2148 H        922 DA      0.0000
   1874 H1'        4.5950    -3.5210  3023.4324 H        922 DA      0.0000
   1875 H8         5.2068     0.1430  3024.2051 H        922 DA      0.0000
   1876 H2         0.0173    -3.6606  3024.2701 H        922 DA      0.0000
   1877 H61        0.5979     1.6203  3024.5949 H        922 DA      0.0000
   1878 H62       -0.9431     0.7935  3024.6383 H        922 DA      0.0000
   1879 P          7.4983    -4.9047  3021.5237 P.3      921 DC      0.0000
   1880 OP1        8.3183    -5.9187  3022.3040 O.co2    921 DC      0.0000
   1881 OP2        8.3238    -3.9327  3020.7981 O.co2    921 DC      0.0000
   1882 O5'        6.3179    -5.5037  3020.5478 O.3      921 DC      0.0000
   1883 C5'        5.3011    -6.3435  3021.2169 C.3      921 DC      0.0000
   1884 C4'        3.9655    -6.0810  3020.5728 C.3      921 DC      0.0000
   1885 O4'        3.2132    -5.0556  3021.2100 O.3      921 DC      0.0000
   1886 C3'        4.0838    -5.6707  3019.0950 C.3      921 DC      0.0000
   1887 O3'        3.0043    -6.1167  3018.2837 O.3      921 DC      0.0000
   1888 C2'        3.9910    -4.1184  3019.2607 C.3      921 DC      0.0000
   1889 C1'        2.7011    -4.2132  3020.1562 C.3      921 DC      0.0000
   1890 N1         2.2543    -2.8656  3020.3941 N.am     921 DC      0.0000
   1891 C2         0.9217    -2.6580  3020.7113 C.2      921 DC      0.0000
   1892 O2         0.0064    -3.4769  3020.8517 O.2      921 DC      0.0000
   1893 N3         0.5024    -1.3717  3020.9095 N.2      921 DC      0.0000
   1894 C4         1.3525    -0.3065  3020.7935 C.2      921 DC      0.0000
   1895 N4         0.8979     0.9377  3021.0096 N.pl3    921 DC      0.0000
   1896 C5         2.7170    -0.5353  3020.4639 C.2      921 DC      0.0000
   1897 C6         3.1031    -1.8021  3020.2722 C.2      921 DC      0.0000
   1898 H5'        5.5624    -7.3959  3021.1054 H        921 DC      0.0000
   1899 H5''       5.2539    -6.0880  3022.2755 H        921 DC      0.0000
   1900 H4'        3.3839    -7.0017  3020.6196 H        921 DC      0.0000
   1901 H3'        5.0449    -5.9686  3018.6760 H        921 DC      0.0000
   1902 H2'        4.8472    -3.6854  3019.7778 H        921 DC      0.0000
   1903 H2''       3.7925    -3.6188  3018.3124 H        921 DC      0.0000
   1904 H1'        1.9276    -4.7544  3019.6113 H        921 DC      0.0000
   1905 H5         3.4157     0.2831  3020.3717 H        921 DC      0.0000
   1906 H6         4.1331    -1.9925  3020.0089 H        921 DC      0.0000
   1907 H41       -0.0717     1.0864  3021.2501 H        921 DC      0.0000
   1908 H42        1.5253     1.7254  3020.9316 H        921 DC      0.0000
   1909 P         -8.6312     5.0877  3054.8829 P.3      931 DG      0.0000
   1910 OP1       -9.3974     6.3583  3054.8813 O.co2    931 DG      0.0000
   1911 OP2       -7.5261     5.2379  3055.9386 O.co2    931 DG      0.0000
   1912 O5'       -9.4662     3.7451  3055.0613 O.3      931 DG      0.0000
   1913 C5'       -9.8647     2.7835  3054.0613 C.3      931 DG      0.0000
   1914 C4'       -9.4922     1.4029  3054.5601 C.3      931 DG      0.0000
   1915 O4'       -8.2009     1.0176  3054.1409 O.3      931 DG      0.0000
   1916 C3'       -9.5569     1.1471  3056.0523 C.3      931 DG      0.0000
   1917 O3'      -10.3885    -0.0029  3056.3643 O.3      931 DG      0.0000
   1918 C2'       -8.1102     0.9739  3056.4741 C.3      931 DG      0.0000
   1919 C1'       -7.4315     0.4824  3055.2185 C.3      931 DG      0.0000
   1920 N9        -6.0303     0.9396  3055.1894 N.ar     931 DG      0.0000
   1921 C8        -5.5175     2.1946  3055.4183 C.ar     931 DG      0.0000
   1922 N7        -4.2084     2.2639  3055.3286 N.ar     931 DG      0.0000
   1923 C5        -3.8289     0.9622  3055.0116 C.ar     931 DG      0.0000
   1924 C6        -2.5580     0.3782  3054.7857 C.2      931 DG      0.0000
   1925 O6        -1.4540     0.9231  3054.8070 O.2      931 DG      0.0000
   1926 N1        -2.5741    -0.9605  3054.5042 N.am     931 DG      0.0000
   1927 C2        -3.6641    -1.6563  3054.4435 C.2      931 DG      0.0000
   1928 N2        -3.4027    -2.8698  3054.1467 N.pl3    931 DG      0.0000
   1929 N3        -4.9599    -1.1733  3054.6523 N.2      931 DG      0.0000
   1930 C4        -4.9361     0.1393  3054.9248 C.ar     931 DG      0.0000
   1931 H5'      -10.9416     2.8406  3053.9025 H        931 DG      0.0000
   1932 H5''      -9.3441     2.9890  3053.1259 H        931 DG      0.0000
   1933 H4'      -10.1900     0.7064  3054.0954 H        931 DG      0.0000
   1934 H3'       -9.9681     2.0274  3056.5462 H        931 DG      0.0000
   1935 H2'       -7.6840     1.9223  3056.8011 H        931 DG      0.0000
   1936 H2''      -8.0314     0.2286  3057.2656 H        931 DG      0.0000
   1937 H1'       -7.4630    -0.6067  3055.1866 H        931 DG      0.0000
   1938 H8        -6.1363     3.0485  3055.6514 H        931 DG      0.0000
   1939 H1        -1.6946    -1.4276  3054.3358 H        931 DG      0.0000
   1940 H21       -2.4460    -3.1596  3054.0024 H        931 DG      0.0000
   1941 H22       -4.1525    -3.5404  3054.0563 H        931 DG      0.0000
   1942 P        -10.4137    -0.6746  3057.7928 P.3      932 DT      0.0000
   1943 OP1      -11.7637    -1.1059  3058.3045 O.co2    932 DT      0.0000
   1944 OP2      -10.0009     0.4898  3058.7115 O.co2    932 DT      0.0000
   1945 O5'       -9.3084    -1.7611  3057.8214 O.3      932 DT      0.0000
   1946 C5'       -9.5864    -3.1811  3057.6774 C.3      932 DT      0.0000
   1947 C4'       -8.2260    -3.8441  3057.7349 C.3      932 DT      0.0000
   1948 O4'       -7.1798    -2.9387  3057.4597 O.3      932 DT      0.0000
   1949 C3'       -7.8452    -4.4806  3059.0476 C.3      932 DT      0.0000
   1950 O3'       -7.7349    -5.8991  3058.8594 O.3      932 DT      0.0000
   1951 C2'       -6.5046    -3.8599  3059.4399 C.3      932 DT      0.0000
   1952 C1'       -5.9733    -3.4630  3058.0871 C.3      932 DT      0.0000
   1953 N1        -5.0168    -2.3601  3058.1837 N.am     932 DT      0.0000
   1954 C2        -3.6947    -2.6533  3057.9858 C.2      932 DT      0.0000
   1955 O2        -3.2998    -3.7924  3057.7476 O.2      932 DT      0.0000
   1956 N3        -2.8068    -1.6145  3058.0669 N.am     932 DT      0.0000
   1957 C4        -3.1859    -0.3419  3058.3228 C.2      932 DT      0.0000
   1958 O4        -2.2563     0.5057  3058.3681 O.2      932 DT      0.0000
   1959 C5        -4.5742    -0.0537  3058.5225 C.2      932 DT      0.0000
   1960 C7        -5.0351     1.3398  3058.8024 C.3      932 DT      0.0000
   1961 C6        -5.4356    -1.0759  3058.4410 C.2      932 DT      0.0000
   1962 H5'      -10.2207    -3.5334  3058.4908 H        932 DT      0.0000
   1963 H5''     -10.0616    -3.3772  3056.7162 H        932 DT      0.0000
   1964 H4'       -8.2027    -4.6206  3056.9704 H        932 DT      0.0000
   1965 H3'       -8.5975    -4.2594  3059.8047 H        932 DT      0.0000
   1966 H2'       -6.6377    -2.9941  3060.0887 H        932 DT      0.0000
   1967 H2''      -5.8568    -4.6004  3059.9091 H        932 DT      0.0000
   1968 H1'       -5.5643    -4.3135  3057.5418 H        932 DT      0.0000
   1969 H3        -1.8250    -1.8071  3057.9294 H        932 DT      0.0000
   1970 H6        -6.4895    -0.8861  3058.5814 H        932 DT      0.0000
   1971 H71       -5.4624     1.7705  3057.8968 H        932 DT      0.0000
   1972 H72       -4.1880     1.9440  3059.1271 H        932 DT      0.0000
   1973 H73       -5.7908     1.3217  3059.5877 H        932 DT      0.0000
   1974 P         -8.2613    -6.7539  3060.1394 P.3      933 DG      0.0000
   1975 OP1       -8.8990    -7.9383  3059.4243 O.co2    933 DG      0.0000
   1976 OP2       -9.2006    -5.9426  3060.8929 O.co2    933 DG      0.0000
   1977 O5'       -6.7793    -7.0644  3060.7489 O.3      933 DG      0.0000
   1978 C5'       -5.8838    -7.5027  3059.6583 C.3      933 DG      0.0000
   1979 C4'       -4.4773    -7.4558  3060.1783 C.3      933 DG      0.0000
   1980 O4'       -3.7824    -6.2509  3059.9978 O.3      933 DG      0.0000
   1981 C3'       -4.3921    -7.7964  3061.6864 C.3      933 DG      0.0000
   1982 O3'       -3.4418    -8.8776  3061.8452 O.3      933 DG      0.0000
   1983 C2'       -4.0289    -6.4797  3062.3389 C.3      933 DG      0.0000
   1984 C1'       -3.1809    -5.8205  3061.2574 C.3      933 DG      0.0000
   1985 N9        -3.1369    -4.3639  3061.4269 N.ar     933 DG      0.0000
   1986 C8        -4.1514    -3.5106  3061.7631 C.ar     933 DG      0.0000
   1987 N7        -3.7989    -2.2468  3061.8489 N.ar     933 DG      0.0000
   1988 C5        -2.4458    -2.2773  3061.5188 C.ar     933 DG      0.0000
   1989 C6        -1.4862    -1.2291  3061.4245 C.2      933 DG      0.0000
   1990 O6        -1.6556    -0.0159  3061.6168 O.2      933 DG      0.0000
   1991 N1        -0.2186    -1.6471  3061.0895 N.am     933 DG      0.0000
   1992 C2         0.0721    -2.9583  3060.8657 C.2      933 DG      0.0000
   1993 N2         1.3564    -3.1807  3060.5569 N.pl3    933 DG      0.0000
   1994 N3        -0.7882    -3.9716  3060.9367 N.2      933 DG      0.0000
   1995 C4        -2.0271    -3.5655  3061.2633 C.ar     933 DG      0.0000
   1996 H5'       -6.1350    -8.5199  3059.3578 H        933 DG      0.0000
   1997 H5''      -5.9844    -6.8308  3058.8059 H        933 DG      0.0000
   1998 H4'       -3.9179    -8.2263  3059.6478 H        933 DG      0.0000
   1999 H3'       -5.3709    -8.1191  3062.0411 H        933 DG      0.0000
   2000 H2'       -4.9173    -5.8888  3062.5619 H        933 DG      0.0000
   2001 H2''      -3.4406    -6.6463  3063.2413 H        933 DG      0.0000
   2002 H1'       -2.1660    -6.2136  3061.3163 H        933 DG      0.0000
   2003 H8        -5.1614    -3.8478  3061.9437 H        933 DG      0.0000
   2004 H1         0.5179    -0.9609  3061.0071 H        933 DG      0.0000
   2005 H21        2.0048    -2.4079  3060.5067 H        933 DG      0.0000
   2006 H22        1.6764    -4.1211  3060.3742 H        933 DG      0.0000
   2007 P         -3.1941    -9.5519  3063.2336 P.3      934 DA      0.0000
   2008 OP1       -4.0730   -10.7071  3063.5890 O.co2    934 DA      0.0000
   2009 OP2       -3.6271    -8.3337  3064.1294 O.co2    934 DA      0.0000
   2010 O5'       -1.6327    -9.6729  3063.4828 O.3      934 DA      0.0000
   2011 C5'       -0.6324    -9.6871  3062.4537 C.3      934 DA      0.0000
   2012 C4'        0.4443    -8.7245  3062.9280 C.3      934 DA      0.0000
   2013 O4'       -0.0130    -7.3921  3062.8377 O.3      934 DA      0.0000
   2014 C3'        0.9491    -8.9249  3064.3571 C.3      934 DA      0.0000
   2015 O3'        2.3905    -8.9017  3064.4094 O.3      934 DA      0.0000
   2016 C2'        0.3039    -7.7438  3065.0925 C.3      934 DA      0.0000
   2017 C1'        0.4475    -6.6798  3064.0149 C.3      934 DA      0.0000
   2018 N9        -0.3807    -5.4915  3064.2433 N.ar     934 DA      0.0000
   2019 C8        -1.7255    -5.3868  3064.4591 C.ar     934 DA      0.0000
   2020 N7        -2.1441    -4.1517  3064.6241 N.ar     934 DA      0.0000
   2021 C5        -0.9940    -3.3894  3064.4839 C.ar     934 DA      0.0000
   2022 C6        -0.7850    -1.9937  3064.5318 C.ar     934 DA      0.0000
   2023 N6        -1.7461    -1.0935  3064.7516 N.pl3    934 DA      0.0000
   2024 N1         0.5068    -1.5914  3064.3420 N.ar     934 DA      0.0000
   2025 C2         1.4969    -2.4876  3064.1243 C.ar     934 DA      0.0000
   2026 N3         1.3747    -3.8132  3064.0660 N.ar     934 DA      0.0000
   2027 C4         0.0970    -4.1911  3064.2529 C.ar     934 DA      0.0000
   2028 H5'       -1.0544    -9.3511  3061.5065 H        934 DA      0.0000
   2029 H5''      -0.2187   -10.6898  3062.3459 H        934 DA      0.0000
   2030 H4'        1.2981    -8.8272  3062.2582 H        934 DA      0.0000
   2031 H3'        0.5743    -9.8664  3064.7585 H        934 DA      0.0000
   2032 H2'       -0.7403    -7.9374  3065.3380 H        934 DA      0.0000
   2033 H2''       0.8733    -7.4788  3065.9834 H        934 DA      0.0000
   2034 H1'        1.4936    -6.3958  3063.9004 H        934 DA      0.0000
   2035 H8        -2.3851    -6.2414  3064.4912 H        934 DA      0.0000
   2036 H2         2.4898    -2.0867  3063.9829 H        934 DA      0.0000
   2037 H61       -2.7361    -1.2683  3064.6542 H        934 DA      0.0000
   2038 H62       -1.5391    -0.1199  3064.5801 H        934 DA      0.0000
   2039 P          2.9427     8.0144  3066.8563 P.3      934 DT      0.0000
   2040 OP1        3.4848     9.4373  3067.0043 O.co2    934 DT      0.0000
   2041 OP2        1.5991     8.0525  3066.1865 O.co2    934 DT      0.0000
   2042 O5'        3.9742     7.0586  3066.2042 O.3      934 DT      0.0000
   2043 C5'        4.9295     6.3096  3066.9556 C.3      934 DT      0.0000
   2044 C4'        5.2311     5.0507  3066.2077 C.3      934 DT      0.0000
   2045 O4'        4.2459     4.0547  3066.1507 O.3      934 DT      0.0000
   2046 C3'        5.6961     5.1871  3064.7416 C.3      934 DT      0.0000
   2047 O3'        6.6237     4.1027  3064.6378 O.3      934 DT      0.0000
   2048 C2'        4.3950     4.9075  3063.9778 C.3      934 DT      0.0000
   2049 C1'        3.9854     3.6723  3064.7536 C.3      934 DT      0.0000
   2050 N1         2.5748     3.2887  3064.6474 N.am     934 DT      0.0000
   2051 C2         2.3257     1.9097  3064.6468 C.2      934 DT      0.0000
   2052 O2         3.2508     1.0960  3064.6898 O.2      934 DT      0.0000
   2053 N3         1.0199     1.5147  3064.5933 N.am     934 DT      0.0000
   2054 C4        -0.0166     2.3982  3064.5336 C.2      934 DT      0.0000
   2055 O4        -1.1938     1.9317  3064.4712 O.2      934 DT      0.0000
   2056 C5         0.2645     3.7916  3064.5418 C.2      934 DT      0.0000
   2057 C7        -0.8774     4.7845  3064.4804 C.3      934 DT      0.0000
   2058 C6         1.5433     4.1736  3064.6083 C.2      934 DT      0.0000
   2059 H5'        5.8419     6.8932  3067.0779 H        934 DT      0.0000
   2060 H5''       4.5164     6.0650  3067.9342 H        934 DT      0.0000
   2061 H4'        6.0699     4.5963  3066.7349 H        934 DT      0.0000
   2062 H3'        6.1347     6.1584  3064.5129 H        934 DT      0.0000
   2063 H2'        4.5683     4.6980  3062.9223 H        934 DT      0.0000
   2064 H2''       3.6756     5.7157  3064.1095 H        934 DT      0.0000
   2065 H1'        4.6205     2.8314  3064.4746 H        934 DT      0.0000
   2066 H3         0.8131     0.5261  3064.5982 H        934 DT      0.0000
   2067 H6         1.7669     5.2299  3064.6320 H        934 DT      0.0000
   2068 H71       -1.8245     4.2472  3064.4316 H        934 DT      0.0000
   2069 H72       -0.7682     5.4091  3063.5938 H        934 DT      0.0000
   2070 H73       -0.8614     5.4122  3065.3714 H        934 DT      0.0000
   2071 P          7.6410     3.8541  3063.4916 P.3      933 DC      0.0000
   2072 OP1        9.0151     3.5691  3064.1008 O.co2    933 DC      0.0000
   2073 OP2        7.6924     5.1291  3062.7098 O.co2    933 DC      0.0000
   2074 O5'        6.9723     2.5656  3062.7522 O.3      933 DC      0.0000
   2075 C5'        7.1072     1.2990  3063.4767 C.3      933 DC      0.0000
   2076 C4'        7.2439     0.2277  3062.4262 C.3      933 DC      0.0000
   2077 O4'        6.0267    -0.4375  3062.1809 O.3      933 DC      0.0000
   2078 C3'        7.7379     0.7114  3061.0618 C.3      933 DC      0.0000
   2079 O3'        8.5464    -0.2299  3060.3525 O.3      933 DC      0.0000
   2080 C2'        6.4044     1.0383  3060.3756 C.3      933 DC      0.0000
   2081 C1'        5.4785    -0.0467  3060.9222 C.3      933 DC      0.0000
   2082 N1         4.1188     0.5305  3061.0400 N.am     933 DC      0.0000
   2083 C2         3.0500    -0.3645  3061.0573 C.2      933 DC      0.0000
   2084 O2         3.2372    -1.5870  3060.9886 O.2      933 DC      0.0000
   2085 N3         1.7918     0.1644  3061.1605 N.2      933 DC      0.0000
   2086 C4         1.5748     1.5038  3061.2313 C.2      933 DC      0.0000
   2087 N4         0.3287     1.9714  3061.3332 N.pl3    933 DC      0.0000
   2088 C5         2.6834     2.3953  3061.2061 C.2      933 DC      0.0000
   2089 C6         3.9191     1.8749  3061.1125 C.2      933 DC      0.0000
   2090 H5'        7.9922     1.3199  3064.1127 H        933 DC      0.0000
   2091 H5''       6.2179     1.1181  3064.0806 H        933 DC      0.0000
   2092 H4'        7.9568    -0.5097  3062.7950 H        933 DC      0.0000
   2093 H3'        8.3029     1.6338  3061.1959 H        933 DC      0.0000
   2094 H2'        6.4925     0.9717  3059.2913 H        933 DC      0.0000
   2095 H2''       6.0532     2.0268  3060.6716 H        933 DC      0.0000
   2096 H1'        5.4630    -0.8989  3060.2429 H        933 DC      0.0000
   2097 H5         2.5357     3.4638  3061.2609 H        933 DC      0.0000
   2098 H6         4.7717     2.5376  3061.0944 H        933 DC      0.0000
   2099 H41       -0.4512     1.3300  3061.3539 H        933 DC      0.0000
   2100 H42        0.1658     2.9666  3061.3896 H        933 DC      0.0000
   2101 P          8.5490    -0.4637  3058.7205 P.3      932 DA      0.0000
   2102 OP1        9.8756    -1.0794  3058.3310 O.co2    932 DA      0.0000
   2103 OP2        8.2961     0.8875  3058.1504 O.co2    932 DA      0.0000
   2104 O5'        7.4164    -1.5765  3058.5550 O.3      932 DA      0.0000
   2105 C5'        7.7214    -2.9485  3059.0204 C.3      932 DA      0.0000
   2106 C4'        6.8049    -3.7842  3058.1431 C.3      932 DA      0.0000
   2107 O4'        5.4380    -3.4459  3058.4104 O.3      932 DA      0.0000
   2108 C3'        6.9845    -3.5134  3056.6387 C.3      932 DA      0.0000
   2109 O3'        6.4120    -4.5441  3055.8496 O.3      932 DA      0.0000
   2110 C2'        6.0589    -2.2973  3056.4512 C.3      932 DA      0.0000
   2111 C1'        4.8571    -2.9285  3057.2059 C.3      932 DA      0.0000
   2112 N9         3.9021    -1.8347  3057.3513 N.ar     932 DA      0.0000
   2113 C8         4.1998    -0.4923  3057.4242 C.ar     932 DA      0.0000
   2114 N7         3.1409     0.2694  3057.5388 N.ar     932 DA      0.0000
   2115 C5         2.0739    -0.6467  3057.5324 C.ar     932 DA      0.0000
   2116 C6         0.6701    -0.4431  3057.6324 C.ar     932 DA      0.0000
   2117 N6         0.1004     0.7593  3057.7552 N.pl3    932 DA      0.0000
   2118 N1        -0.0686    -1.5873  3057.5972 N.ar     932 DA      0.0000
   2119 C2         0.5091    -2.8078  3057.4783 C.ar     932 DA      0.0000
   2120 N3         1.8158    -3.0709  3057.3869 N.ar     932 DA      0.0000
   2121 C4         2.5343    -1.9348  3057.4144 C.ar     932 DA      0.0000
   2122 H5'        8.7687    -3.2005  3058.8536 H        932 DA      0.0000
   2123 H5''       7.4598    -3.0654  3060.0720 H        932 DA      0.0000
   2124 H4'        6.9673    -4.8426  3058.3471 H        932 DA      0.0000
   2125 H3'        8.0191    -3.3014  3056.3691 H        932 DA      0.0000
   2126 H2'        6.4379    -1.3959  3056.9329 H        932 DA      0.0000
   2127 H2''       5.8285    -2.1252  3055.3999 H        932 DA      0.0000
   2128 H1'        4.4218    -3.7362  3056.6175 H        932 DA      0.0000
   2129 H8         5.2077    -0.1056  3057.3901 H        932 DA      0.0000
   2130 H2        -0.1574    -3.6573  3057.4551 H        932 DA      0.0000
   2131 H61        0.6745     1.5899  3057.7800 H        932 DA      0.0000
   2132 H62       -0.9042     0.8376  3057.8233 H        932 DA      0.0000
   2133 P          7.2557    -5.2568  3054.7087 P.3      931 DC      0.0000
   2134 OP1        8.0265    -6.3088  3055.4890 O.co2    931 DC      0.0000
   2135 OP2        8.1267    -4.3253  3053.9831 O.co2    931 DC      0.0000
   2136 O5'        6.0481    -5.7988  3053.7329 O.3      931 DC      0.0000
   2137 C5'        4.9924    -6.5892  3054.4019 C.3      931 DC      0.0000
   2138 C4'        3.6708    -6.2633  3053.7579 C.3      931 DC      0.0000
   2139 O4'        2.9684    -5.2032  3054.3950 O.3      931 DC      0.0000
   2140 C3'        3.8086    -5.8591  3052.2800 C.3      931 DC      0.0000
   2141 O3'        2.7090    -6.2530  3051.4687 O.3      931 DC      0.0000
   2142 C2'        3.7899    -4.3042  3052.4457 C.3      931 DC      0.0000
   2143 C1'        2.4970    -4.3373  3053.3413 C.3      931 DC      0.0000
   2144 N1         2.1150    -2.9699  3053.5792 N.am     931 DC      0.0000
   2145 C2         0.7938    -2.6989  3053.8963 C.2      931 DC      0.0000
   2146 O2        -0.1595    -3.4732  3054.0368 O.2      931 DC      0.0000
   2147 N3         0.4364    -1.3941  3054.0945 N.2      931 DC      0.0000
   2148 C4         1.3363    -0.3707  3053.9785 C.2      931 DC      0.0000
   2149 N4         0.9416     0.8938  3054.1946 N.pl3    931 DC      0.0000
   2150 C5         2.6884    -0.6643  3053.6489 C.2      931 DC      0.0000
   2151 C6         3.0136    -1.9481  3053.4572 C.2      931 DC      0.0000
   2152 H5'        5.2033    -7.6528  3054.2904 H        931 DC      0.0000
   2153 H5''       4.9575    -6.3318  3055.4605 H        931 DC      0.0000
   2154 H4'        3.0460    -7.1552  3053.8046 H        931 DC      0.0000
   2155 H3'        4.7544    -6.2025  3051.8610 H        931 DC      0.0000
   2156 H2'        4.6659    -3.9125  3052.9628 H        931 DC      0.0000
   2157 H2''       3.6155    -3.7957  3051.4974 H        931 DC      0.0000
   2158 H1'        1.6986    -4.8410  3052.7964 H        931 DC      0.0000
   2159 H5         3.4253     0.1199  3053.5568 H        931 DC      0.0000
   2160 H6         4.0333    -2.1874  3053.1939 H        931 DC      0.0000
   2161 H41       -0.0198     1.0886  3054.4351 H        931 DC      0.0000
   2162 H42        1.6059     1.6506  3054.1167 H        931 DC      0.0000
@<TRIPOS>BOND
     1      9     34 1
     2     42     66 1
     3     74     99 1
     4    107    131 1
     5    139    163 1
     6    171    195 1
     7    203    227 1
     8    235    257 1
     9    265    289 1
    10    327    352 1
    11    360    384 1
    12    392    417 1
    13    425    449 1
    14    457    481 1
    15    489    513 1
    16    521    545 1
    17    553    575 1
    18    583    607 1
    19      1      2 1
    20      1      3 1
    21      1      4 1
    22      4      5 1
    23      5      6 1
    24      6      7 1
    25      6      8 1
    26      7     11 1
    27      8      9 1
    28      8     10 1
    29     10     11 1
    30     11     12 1
    31     12     13 ar
    32     12     22 ar
    33     13     14 ar
    34     14     15 ar
    35     15     16 1
    36     15     22 ar
    37     16     17 2
    38     16     18 am
    39     18     19 1
    40     19     20 2
    41     19     21 2
    42     21     22 1
    43     34     35 1
    44     34     36 1
    45     34     37 1
    46     37     38 1
    47     38     39 1
    48     39     40 1
    49     39     41 1
    50     40     44 1
    51     41     42 1
    52     41     43 1
    53     43     44 1
    54     44     45 1
    55     45     46 am
    56     45     53 1
    57     46     47 2
    58     46     48 am
    59     48     49 am
    60     49     50 2
    61     49     51 1
    62     51     52 1
    63     51     53 2
    64     66     67 1
    65     66     68 1
    66     66     69 1
    67     69     70 1
    68     70     71 1
    69     71     72 1
    70     71     73 1
    71     72     76 1
    72     73     74 1
    73     73     75 1
    74     75     76 1
    75     76     77 1
    76     77     78 ar
    77     77     87 ar
    78     78     79 ar
    79     79     80 ar
    80     80     81 1
    81     80     87 ar
    82     81     82 2
    83     81     83 am
    84     83     84 1
    85     84     85 2
    86     84     86 2
    87     86     87 1
    88     99    100 1
    89     99    101 1
    90     99    102 1
    91    102    103 1
    92    103    104 1
    93    104    105 1
    94    104    106 1
    95    105    109 1
    96    106    107 1
    97    106    108 1
    98    108    109 1
    99    109    110 1
   100    110    111 ar
   101    110    119 ar
   102    111    112 ar
   103    112    113 ar
   104    113    114 ar
   105    113    119 ar
   106    114    115 1
   107    114    116 ar
   108    116    117 ar
   109    117    118 ar
   110    118    119 ar
   111    131    132 1
   112    131    133 1
   113    131    134 1
   114    134    135 1
   115    135    136 1
   116    136    137 1
   117    136    138 1
   118    137    141 1
   119    138    139 1
   120    138    140 1
   121    140    141 1
   122    141    142 1
   123    142    143 ar
   124    142    151 ar
   125    143    144 ar
   126    144    145 ar
   127    145    146 ar
   128    145    151 ar
   129    146    147 1
   130    146    148 ar
   131    148    149 ar
   132    149    150 ar
   133    150    151 ar
   134    163    164 1
   135    163    165 1
   136    163    166 1
   137    166    167 1
   138    167    168 1
   139    168    169 1
   140    168    170 1
   141    169    173 1
   142    170    171 1
   143    170    172 1
   144    172    173 1
   145    173    174 1
   146    174    175 am
   147    174    182 1
   148    175    176 2
   149    175    177 am
   150    177    178 am
   151    178    179 2
   152    178    180 1
   153    180    181 1
   154    180    182 2
   155    195    196 1
   156    195    197 1
   157    195    198 1
   158    198    199 1
   159    199    200 1
   160    200    201 1
   161    200    202 1
   162    201    205 1
   163    202    203 1
   164    202    204 1
   165    204    205 1
   166    205    206 1
   167    206    207 am
   168    206    214 1
   169    207    208 2
   170    207    209 am
   171    209    210 am
   172    210    211 2
   173    210    212 1
   174    212    213 1
   175    212    214 2
   176    227    228 1
   177    227    229 1
   178    227    230 1
   179    230    231 1
   180    231    232 1
   181    232    233 1
   182    232    234 1
   183    233    237 1
   184    234    235 1
   185    234    236 1
   186    236    237 1
   187    237    238 1
   188    238    239 am
   189    238    245 1
   190    239    240 2
   191    239    241 1
   192    241    242 2
   193    242    243 2
   194    242    244 2
   195    244    245 2
   196    257    258 1
   197    257    259 1
   198    257    260 1
   199    260    261 1
   200    261    262 1
   201    262    263 1
   202    262    264 1
   203    263    267 1
   204    264    265 1
   205    264    266 1
   206    266    267 1
   207    267    268 1
   208    268    269 ar
   209    268    277 ar
   210    269    270 ar
   211    270    271 ar
   212    271    272 ar
   213    271    277 ar
   214    272    273 1
   215    272    274 ar
   216    274    275 ar
   217    275    276 ar
   218    276    277 ar
   219    289    290 1
   220    289    291 1
   221    289    292 1
   222    292    293 1
   223    293    294 1
   224    294    295 1
   225    294    296 1
   226    295    299 1
   227    296    297 1
   228    296    298 1
   229    298    299 1
   230    299    300 1
   231    300    301 am
   232    300    307 1
   233    301    302 2
   234    301    303 1
   235    303    304 2
   236    304    305 2
   237    304    306 2
   238    306    307 2
   239    319    320 1
   240    319    321 1
   241    319    322 1
   242    322    323 1
   243    323    324 1
   244    324    325 1
   245    324    326 1
   246    325    329 1
   247    326    327 1
   248    326    328 1
   249    328    329 1
   250    329    330 1
   251    330    331 ar
   252    330    340 ar
   253    331    332 ar
   254    332    333 ar
   255    333    334 1
   256    333    340 ar
   257    334    335 2
   258    334    336 am
   259    336    337 1
   260    337    338 2
   261    337    339 2
   262    339    340 1
   263    352    353 1
   264    352    354 1
   265    352    355 1
   266    355    356 1
   267    356    357 1
   268    357    358 1
   269    357    359 1
   270    358    362 1
   271    359    360 1
   272    359    361 1
   273    361    362 1
   274    362    363 1
   275    363    364 am
   276    363    371 1
   277    364    365 2
   278    364    366 am
   279    366    367 am
   280    367    368 2
   281    367    369 1
   282    369    370 1
   283    369    371 2
   284    384    385 1
   285    384    386 1
   286    384    387 1
   287    387    388 1
   288    388    389 1
   289    389    390 1
   290    389    391 1
   291    390    394 1
   292    391    392 1
   293    391    393 1
   294    393    394 1
   295    394    395 1
   296    395    396 ar
   297    395    405 ar
   298    396    397 ar
   299    397    398 ar
   300    398    399 1
   301    398    405 ar
   302    399    400 2
   303    399    401 am
   304    401    402 1
   305    402    403 2
   306    402    404 2
   307    404    405 1
   308    417    418 1
   309    417    419 1
   310    417    420 1
   311    420    421 1
   312    421    422 1
   313    422    423 1
   314    422    424 1
   315    423    427 1
   316    424    425 1
   317    424    426 1
   318    426    427 1
   319    427    428 1
   320    428    429 ar
   321    428    437 ar
   322    429    430 ar
   323    430    431 ar
   324    431    432 ar
   325    431    437 ar
   326    432    433 1
   327    432    434 ar
   328    434    435 ar
   329    435    436 ar
   330    436    437 ar
   331    449    450 1
   332    449    451 1
   333    449    452 1
   334    452    453 1
   335    453    454 1
   336    454    455 1
   337    454    456 1
   338    455    459 1
   339    456    457 1
   340    456    458 1
   341    458    459 1
   342    459    460 1
   343    460    461 ar
   344    460    469 ar
   345    461    462 ar
   346    462    463 ar
   347    463    464 ar
   348    463    469 ar
   349    464    465 1
   350    464    466 ar
   351    466    467 ar
   352    467    468 ar
   353    468    469 ar
   354    481    482 1
   355    481    483 1
   356    481    484 1
   357    484    485 1
   358    485    486 1
   359    486    487 1
   360    486    488 1
   361    487    491 1
   362    488    489 1
   363    488    490 1
   364    490    491 1
   365    491    492 1
   366    492    493 am
   367    492    500 1
   368    493    494 2
   369    493    495 am
   370    495    496 am
   371    496    497 2
   372    496    498 1
   373    498    499 1
   374    498    500 2
   375    513    514 1
   376    513    515 1
   377    513    516 1
   378    516    517 1
   379    517    518 1
   380    518    519 1
   381    518    520 1
   382    519    523 1
   383    520    521 1
   384    520    522 1
   385    522    523 1
   386    523    524 1
   387    524    525 am
   388    524    532 1
   389    525    526 2
   390    525    527 am
   391    527    528 am
   392    528    529 2
   393    528    530 1
   394    530    531 1
   395    530    532 2
   396    545    546 1
   397    545    547 1
   398    545    548 1
   399    548    549 1
   400    549    550 1
   401    550    551 1
   402    550    552 1
   403    551    555 1
   404    552    553 1
   405    552    554 1
   406    554    555 1
   407    555    556 1
   408    556    557 am
   409    556    563 1
   410    557    558 2
   411    557    559 1
   412    559    560 2
   413    560    561 2
   414    560    562 2
   415    562    563 2
   416    575    576 1
   417    575    577 1
   418    575    578 1
   419    578    579 1
   420    579    580 1
   421    580    581 1
   422    580    582 1
   423    581    585 1
   424    582    583 1
   425    582    584 1
   426    584    585 1
   427    585    586 1
   428    586    587 ar
   429    586    595 ar
   430    587    588 ar
   431    588    589 ar
   432    589    590 ar
   433    589    595 ar
   434    590    591 1
   435    590    592 ar
   436    592    593 ar
   437    593    594 ar
   438    594    595 ar
   439    607    608 1
   440    607    609 1
   441    607    610 1
   442    610    611 1
   443    611    612 1
   444    612    613 1
   445    612    614 1
   446    613    617 1
   447    614    615 1
   448    614    616 1
   449    616    617 1
   450    617    618 1
   451    618    619 am
   452    618    625 1
   453    619    620 2
   454    619    621 1
   455    621    622 2
   456    622    623 2
   457    622    624 2
   458    624    625 2
   459     23      5 1
   460     24      5 1
   461     25      6 1
   462     26      8 1
   463     27     10 1
   464     28     10 1
   465     29     11 1
   466     30     13 1
   467     31     18 1
   468     54     38 1
   469     55     38 1
   470     56     39 1
   471     57     41 1
   472     58     43 1
   473     59     43 1
   474     60     44 1
   475     61     48 1
   476     62     53 1
   477     88     70 1
   478     89     70 1
   479     90     71 1
   480     91     73 1
   481     92     75 1
   482     93     75 1
   483     94     76 1
   484     95     78 1
   485     96     83 1
   486    120    103 1
   487    121    103 1
   488    122    104 1
   489    123    106 1
   490    124    108 1
   491    125    108 1
   492    126    109 1
   493    127    111 1
   494    128    117 1
   495    152    135 1
   496    153    135 1
   497    154    136 1
   498    155    138 1
   499    156    140 1
   500    157    140 1
   501    158    141 1
   502    159    143 1
   503    160    149 1
   504    183    167 1
   505    184    167 1
   506    185    168 1
   507    186    170 1
   508    187    172 1
   509    188    172 1
   510    189    173 1
   511    190    177 1
   512    191    182 1
   513    215    199 1
   514    216    199 1
   515    217    200 1
   516    218    202 1
   517    219    204 1
   518    220    204 1
   519    221    205 1
   520    222    209 1
   521    223    214 1
   522    246    231 1
   523    247    231 1
   524    248    232 1
   525    249    234 1
   526    250    236 1
   527    251    236 1
   528    252    237 1
   529    253    244 1
   530    254    245 1
   531    278    261 1
   532    279    261 1
   533    280    262 1
   534    281    264 1
   535    282    266 1
   536    283    266 1
   537    284    267 1
   538    285    269 1
   539    286    275 1
   540    308    293 1
   541    309    293 1
   542    310    294 1
   543    311    296 1
   544    312    298 1
   545    313    298 1
   546    314    299 1
   547    315    306 1
   548    316    307 1
   549    341    323 1
   550    342    323 1
   551    343    324 1
   552    344    326 1
   553    345    328 1
   554    346    328 1
   555    347    329 1
   556    348    331 1
   557    349    336 1
   558    372    356 1
   559    373    356 1
   560    374    357 1
   561    375    359 1
   562    376    361 1
   563    377    361 1
   564    378    362 1
   565    379    366 1
   566    380    371 1
   567    406    388 1
   568    407    388 1
   569    408    389 1
   570    409    391 1
   571    410    393 1
   572    411    393 1
   573    412    394 1
   574    413    396 1
   575    414    401 1
   576    438    421 1
   577    439    421 1
   578    440    422 1
   579    441    424 1
   580    442    426 1
   581    443    426 1
   582    444    427 1
   583    445    429 1
   584    446    435 1
   585    470    453 1
   586    471    453 1
   587    472    454 1
   588    473    456 1
   589    474    458 1
   590    475    458 1
   591    476    459 1
   592    477    461 1
   593    478    467 1
   594    501    485 1
   595    502    485 1
   596    503    486 1
   597    504    488 1
   598    505    490 1
   599    506    490 1
   600    507    491 1
   601    508    495 1
   602    509    500 1
   603    533    517 1
   604    534    517 1
   605    535    518 1
   606    536    520 1
   607    537    522 1
   608    538    522 1
   609    539    523 1
   610    540    527 1
   611    541    532 1
   612    564    549 1
   613    565    549 1
   614    566    550 1
   615    567    552 1
   616    568    554 1
   617    569    554 1
   618    570    555 1
   619    571    562 1
   620    572    563 1
   621    596    579 1
   622    597    579 1
   623    598    580 1
   624    599    582 1
   625    600    584 1
   626    601    584 1
   627    602    585 1
   628    603    587 1
   629    604    593 1
   630    626    611 1
   631    627    611 1
   632    628    612 1
   633    629    614 1
   634    630    616 1
   635    631    616 1
   636    632    617 1
   637    633    624 1
   638    634    625 1
   639     32     20 1
   640     33     20 1
   641     97     85 1
   642     98     85 1
   643    255    243 1
   644    256    243 1
   645    317    305 1
   646    318    305 1
   647    350    338 1
   648    351    338 1
   649    415    403 1
   650    416    403 1
   651    573    561 1
   652    574    561 1
   653    635    623 1
   654    636    623 1
   655    129    115 1
   656    130    115 1
   657    161    147 1
   658    162    147 1
   659    287    273 1
   660    288    273 1
   661    447    433 1
   662    448    433 1
   663    479    465 1
   664    480    465 1
   665    605    591 1
   666    606    591 1
   667     63     52 1
   668     64     52 1
   669     65     52 1
   670    192    181 1
   671    193    181 1
   672    194    181 1
   673    224    213 1
   674    225    213 1
   675    226    213 1
   676    381    370 1
   677    382    370 1
   678    383    370 1
   679    510    499 1
   680    511    499 1
   681    512    499 1
   682    542    531 1
   683    543    531 1
   684    544    531 1
   685    297    637 1
   686    319   1251 1
   687    645    670 1
   688    678    702 1
   689    710    735 1
   690    743    767 1
   691    775    799 1
   692    807    831 1
   693    839    863 1
   694    871    893 1
   695    901    925 1
   696    963    988 1
   697    996   1020 1
   698   1028   1053 1
   699   1061   1085 1
   700   1093   1117 1
   701   1125   1149 1
   702   1157   1181 1
   703   1189   1211 1
   704   1219   1243 1
   705    637    638 1
   706    637    639 1
   707    637    640 1
   708    640    641 1
   709    641    642 1
   710    642    643 1
   711    642    644 1
   712    643    647 1
   713    644    645 1
   714    644    646 1
   715    646    647 1
   716    647    648 1
   717    648    649 ar
   718    648    658 ar
   719    649    650 ar
   720    650    651 ar
   721    651    652 1
   722    651    658 ar
   723    652    653 2
   724    652    654 am
   725    654    655 1
   726    655    656 2
   727    655    657 2
   728    657    658 1
   729    670    671 1
   730    670    672 1
   731    670    673 1
   732    673    674 1
   733    674    675 1
   734    675    676 1
   735    675    677 1
   736    676    680 1
   737    677    678 1
   738    677    679 1
   739    679    680 1
   740    680    681 1
   741    681    682 am
   742    681    689 1
   743    682    683 2
   744    682    684 am
   745    684    685 am
   746    685    686 2
   747    685    687 1
   748    687    688 1
   749    687    689 2
   750    702    703 1
   751    702    704 1
   752    702    705 1
   753    705    706 1
   754    706    707 1
   755    707    708 1
   756    707    709 1
   757    708    712 1
   758    709    710 1
   759    709    711 1
   760    711    712 1
   761    712    713 1
   762    713    714 ar
   763    713    723 ar
   764    714    715 ar
   765    715    716 ar
   766    716    717 1
   767    716    723 ar
   768    717    718 2
   769    717    719 am
   770    719    720 1
   771    720    721 2
   772    720    722 2
   773    722    723 1
   774    735    736 1
   775    735    737 1
   776    735    738 1
   777    738    739 1
   778    739    740 1
   779    740    741 1
   780    740    742 1
   781    741    745 1
   782    742    743 1
   783    742    744 1
   784    744    745 1
   785    745    746 1
   786    746    747 ar
   787    746    755 ar
   788    747    748 ar
   789    748    749 ar
   790    749    750 ar
   791    749    755 ar
   792    750    751 1
   793    750    752 ar
   794    752    753 ar
   795    753    754 ar
   796    754    755 ar
   797    767    768 1
   798    767    769 1
   799    767    770 1
   800    770    771 1
   801    771    772 1
   802    772    773 1
   803    772    774 1
   804    773    777 1
   805    774    775 1
   806    774    776 1
   807    776    777 1
   808    777    778 1
   809    778    779 ar
   810    778    787 ar
   811    779    780 ar
   812    780    781 ar
   813    781    782 ar
   814    781    787 ar
   815    782    783 1
   816    782    784 ar
   817    784    785 ar
   818    785    786 ar
   819    786    787 ar
   820    799    800 1
   821    799    801 1
   822    799    802 1
   823    802    803 1
   824    803    804 1
   825    804    805 1
   826    804    806 1
   827    805    809 1
   828    806    807 1
   829    806    808 1
   830    808    809 1
   831    809    810 1
   832    810    811 am
   833    810    818 1
   834    811    812 2
   835    811    813 am
   836    813    814 am
   837    814    815 2
   838    814    816 1
   839    816    817 1
   840    816    818 2
   841    831    832 1
   842    831    833 1
   843    831    834 1
   844    834    835 1
   845    835    836 1
   846    836    837 1
   847    836    838 1
   848    837    841 1
   849    838    839 1
   850    838    840 1
   851    840    841 1
   852    841    842 1
   853    842    843 am
   854    842    850 1
   855    843    844 2
   856    843    845 am
   857    845    846 am
   858    846    847 2
   859    846    848 1
   860    848    849 1
   861    848    850 2
   862    863    864 1
   863    863    865 1
   864    863    866 1
   865    866    867 1
   866    867    868 1
   867    868    869 1
   868    868    870 1
   869    869    873 1
   870    870    871 1
   871    870    872 1
   872    872    873 1
   873    873    874 1
   874    874    875 am
   875    874    881 1
   876    875    876 2
   877    875    877 1
   878    877    878 2
   879    878    879 2
   880    878    880 2
   881    880    881 2
   882    893    894 1
   883    893    895 1
   884    893    896 1
   885    896    897 1
   886    897    898 1
   887    898    899 1
   888    898    900 1
   889    899    903 1
   890    900    901 1
   891    900    902 1
   892    902    903 1
   893    903    904 1
   894    904    905 ar
   895    904    913 ar
   896    905    906 ar
   897    906    907 ar
   898    907    908 ar
   899    907    913 ar
   900    908    909 1
   901    908    910 ar
   902    910    911 ar
   903    911    912 ar
   904    912    913 ar
   905    925    926 1
   906    925    927 1
   907    925    928 1
   908    928    929 1
   909    929    930 1
   910    930    931 1
   911    930    932 1
   912    931    935 1
   913    932    933 1
   914    932    934 1
   915    934    935 1
   916    935    936 1
   917    936    937 am
   918    936    943 1
   919    937    938 2
   920    937    939 1
   921    939    940 2
   922    940    941 2
   923    940    942 2
   924    942    943 2
   925    955    956 1
   926    955    957 1
   927    955    958 1
   928    958    959 1
   929    959    960 1
   930    960    961 1
   931    960    962 1
   932    961    965 1
   933    962    963 1
   934    962    964 1
   935    964    965 1
   936    965    966 1
   937    966    967 ar
   938    966    976 ar
   939    967    968 ar
   940    968    969 ar
   941    969    970 1
   942    969    976 ar
   943    970    971 2
   944    970    972 am
   945    972    973 1
   946    973    974 2
   947    973    975 2
   948    975    976 1
   949    988    989 1
   950    988    990 1
   951    988    991 1
   952    991    992 1
   953    992    993 1
   954    993    994 1
   955    993    995 1
   956    994    998 1
   957    995    996 1
   958    995    997 1
   959    997    998 1
   960    998    999 1
   961    999   1000 am
   962    999   1007 1
   963   1000   1001 2
   964   1000   1002 am
   965   1002   1003 am
   966   1003   1004 2
   967   1003   1005 1
   968   1005   1006 1
   969   1005   1007 2
   970   1020   1021 1
   971   1020   1022 1
   972   1020   1023 1
   973   1023   1024 1
   974   1024   1025 1
   975   1025   1026 1
   976   1025   1027 1
   977   1026   1030 1
   978   1027   1028 1
   979   1027   1029 1
   980   1029   1030 1
   981   1030   1031 1
   982   1031   1032 ar
   983   1031   1041 ar
   984   1032   1033 ar
   985   1033   1034 ar
   986   1034   1035 1
   987   1034   1041 ar
   988   1035   1036 2
   989   1035   1037 am
   990   1037   1038 1
   991   1038   1039 2
   992   1038   1040 2
   993   1040   1041 1
   994   1053   1054 1
   995   1053   1055 1
   996   1053   1056 1
   997   1056   1057 1
   998   1057   1058 1
   999   1058   1059 1
  1000   1058   1060 1
  1001   1059   1063 1
  1002   1060   1061 1
  1003   1060   1062 1
  1004   1062   1063 1
  1005   1063   1064 1
  1006   1064   1065 ar
  1007   1064   1073 ar
  1008   1065   1066 ar
  1009   1066   1067 ar
  1010   1067   1068 ar
  1011   1067   1073 ar
  1012   1068   1069 1
  1013   1068   1070 ar
  1014   1070   1071 ar
  1015   1071   1072 ar
  1016   1072   1073 ar
  1017   1085   1086 1
  1018   1085   1087 1
  1019   1085   1088 1
  1020   1088   1089 1
  1021   1089   1090 1
  1022   1090   1091 1
  1023   1090   1092 1
  1024   1091   1095 1
  1025   1092   1093 1
  1026   1092   1094 1
  1027   1094   1095 1
  1028   1095   1096 1
  1029   1096   1097 ar
  1030   1096   1105 ar
  1031   1097   1098 ar
  1032   1098   1099 ar
  1033   1099   1100 ar
  1034   1099   1105 ar
  1035   1100   1101 1
  1036   1100   1102 ar
  1037   1102   1103 ar
  1038   1103   1104 ar
  1039   1104   1105 ar
  1040   1117   1118 1
  1041   1117   1119 1
  1042   1117   1120 1
  1043   1120   1121 1
  1044   1121   1122 1
  1045   1122   1123 1
  1046   1122   1124 1
  1047   1123   1127 1
  1048   1124   1125 1
  1049   1124   1126 1
  1050   1126   1127 1
  1051   1127   1128 1
  1052   1128   1129 am
  1053   1128   1136 1
  1054   1129   1130 2
  1055   1129   1131 am
  1056   1131   1132 am
  1057   1132   1133 2
  1058   1132   1134 1
  1059   1134   1135 1
  1060   1134   1136 2
  1061   1149   1150 1
  1062   1149   1151 1
  1063   1149   1152 1
  1064   1152   1153 1
  1065   1153   1154 1
  1066   1154   1155 1
  1067   1154   1156 1
  1068   1155   1159 1
  1069   1156   1157 1
  1070   1156   1158 1
  1071   1158   1159 1
  1072   1159   1160 1
  1073   1160   1161 am
  1074   1160   1168 1
  1075   1161   1162 2
  1076   1161   1163 am
  1077   1163   1164 am
  1078   1164   1165 2
  1079   1164   1166 1
  1080   1166   1167 1
  1081   1166   1168 2
  1082   1181   1182 1
  1083   1181   1183 1
  1084   1181   1184 1
  1085   1184   1185 1
  1086   1185   1186 1
  1087   1186   1187 1
  1088   1186   1188 1
  1089   1187   1191 1
  1090   1188   1189 1
  1091   1188   1190 1
  1092   1190   1191 1
  1093   1191   1192 1
  1094   1192   1193 am
  1095   1192   1199 1
  1096   1193   1194 2
  1097   1193   1195 1
  1098   1195   1196 2
  1099   1196   1197 2
  1100   1196   1198 2
  1101   1198   1199 2
  1102   1211   1212 1
  1103   1211   1213 1
  1104   1211   1214 1
  1105   1214   1215 1
  1106   1215   1216 1
  1107   1216   1217 1
  1108   1216   1218 1
  1109   1217   1221 1
  1110   1218   1219 1
  1111   1218   1220 1
  1112   1220   1221 1
  1113   1221   1222 1
  1114   1222   1223 ar
  1115   1222   1231 ar
  1116   1223   1224 ar
  1117   1224   1225 ar
  1118   1225   1226 ar
  1119   1225   1231 ar
  1120   1226   1227 1
  1121   1226   1228 ar
  1122   1228   1229 ar
  1123   1229   1230 ar
  1124   1230   1231 ar
  1125   1243   1244 1
  1126   1243   1245 1
  1127   1243   1246 1
  1128   1246   1247 1
  1129   1247   1248 1
  1130   1248   1249 1
  1131   1248   1250 1
  1132   1249   1253 1
  1133   1250   1251 1
  1134   1250   1252 1
  1135   1252   1253 1
  1136   1253   1254 1
  1137   1254   1255 am
  1138   1254   1261 1
  1139   1255   1256 2
  1140   1255   1257 1
  1141   1257   1258 2
  1142   1258   1259 2
  1143   1258   1260 2
  1144   1260   1261 2
  1145    659    641 1
  1146    660    641 1
  1147    661    642 1
  1148    662    644 1
  1149    663    646 1
  1150    664    646 1
  1151    665    647 1
  1152    666    649 1
  1153    667    654 1
  1154    690    674 1
  1155    691    674 1
  1156    692    675 1
  1157    693    677 1
  1158    694    679 1
  1159    695    679 1
  1160    696    680 1
  1161    697    684 1
  1162    698    689 1
  1163    724    706 1
  1164    725    706 1
  1165    726    707 1
  1166    727    709 1
  1167    728    711 1
  1168    729    711 1
  1169    730    712 1
  1170    731    714 1
  1171    732    719 1
  1172    756    739 1
  1173    757    739 1
  1174    758    740 1
  1175    759    742 1
  1176    760    744 1
  1177    761    744 1
  1178    762    745 1
  1179    763    747 1
  1180    764    753 1
  1181    788    771 1
  1182    789    771 1
  1183    790    772 1
  1184    791    774 1
  1185    792    776 1
  1186    793    776 1
  1187    794    777 1
  1188    795    779 1
  1189    796    785 1
  1190    819    803 1
  1191    820    803 1
  1192    821    804 1
  1193    822    806 1
  1194    823    808 1
  1195    824    808 1
  1196    825    809 1
  1197    826    813 1
  1198    827    818 1
  1199    851    835 1
  1200    852    835 1
  1201    853    836 1
  1202    854    838 1
  1203    855    840 1
  1204    856    840 1
  1205    857    841 1
  1206    858    845 1
  1207    859    850 1
  1208    882    867 1
  1209    883    867 1
  1210    884    868 1
  1211    885    870 1
  1212    886    872 1
  1213    887    872 1
  1214    888    873 1
  1215    889    880 1
  1216    890    881 1
  1217    914    897 1
  1218    915    897 1
  1219    916    898 1
  1220    917    900 1
  1221    918    902 1
  1222    919    902 1
  1223    920    903 1
  1224    921    905 1
  1225    922    911 1
  1226    944    929 1
  1227    945    929 1
  1228    946    930 1
  1229    947    932 1
  1230    948    934 1
  1231    949    934 1
  1232    950    935 1
  1233    951    942 1
  1234    952    943 1
  1235    977    959 1
  1236    978    959 1
  1237    979    960 1
  1238    980    962 1
  1239    981    964 1
  1240    982    964 1
  1241    983    965 1
  1242    984    967 1
  1243    985    972 1
  1244   1008    992 1
  1245   1009    992 1
  1246   1010    993 1
  1247   1011    995 1
  1248   1012    997 1
  1249   1013    997 1
  1250   1014    998 1
  1251   1015   1002 1
  1252   1016   1007 1
  1253   1042   1024 1
  1254   1043   1024 1
  1255   1044   1025 1
  1256   1045   1027 1
  1257   1046   1029 1
  1258   1047   1029 1
  1259   1048   1030 1
  1260   1049   1032 1
  1261   1050   1037 1
  1262   1074   1057 1
  1263   1075   1057 1
  1264   1076   1058 1
  1265   1077   1060 1
  1266   1078   1062 1
  1267   1079   1062 1
  1268   1080   1063 1
  1269   1081   1065 1
  1270   1082   1071 1
  1271   1106   1089 1
  1272   1107   1089 1
  1273   1108   1090 1
  1274   1109   1092 1
  1275   1110   1094 1
  1276   1111   1094 1
  1277   1112   1095 1
  1278   1113   1097 1
  1279   1114   1103 1
  1280   1137   1121 1
  1281   1138   1121 1
  1282   1139   1122 1
  1283   1140   1124 1
  1284   1141   1126 1
  1285   1142   1126 1
  1286   1143   1127 1
  1287   1144   1131 1
  1288   1145   1136 1
  1289   1169   1153 1
  1290   1170   1153 1
  1291   1171   1154 1
  1292   1172   1156 1
  1293   1173   1158 1
  1294   1174   1158 1
  1295   1175   1159 1
  1296   1176   1163 1
  1297   1177   1168 1
  1298   1200   1185 1
  1299   1201   1185 1
  1300   1202   1186 1
  1301   1203   1188 1
  1302   1204   1190 1
  1303   1205   1190 1
  1304   1206   1191 1
  1305   1207   1198 1
  1306   1208   1199 1
  1307   1232   1215 1
  1308   1233   1215 1
  1309   1234   1216 1
  1310   1235   1218 1
  1311   1236   1220 1
  1312   1237   1220 1
  1313   1238   1221 1
  1314   1239   1223 1
  1315   1240   1229 1
  1316   1262   1247 1
  1317   1263   1247 1
  1318   1264   1248 1
  1319   1265   1250 1
  1320   1266   1252 1
  1321   1267   1252 1
  1322   1268   1253 1
  1323   1269   1260 1
  1324   1270   1261 1
  1325    668    656 1
  1326    669    656 1
  1327    733    721 1
  1328    734    721 1
  1329    891    879 1
  1330    892    879 1
  1331    953    941 1
  1332    954    941 1
  1333    986    974 1
  1334    987    974 1
  1335   1051   1039 1
  1336   1052   1039 1
  1337   1209   1197 1
  1338   1210   1197 1
  1339   1271   1259 1
  1340   1272   1259 1
  1341    765    751 1
  1342    766    751 1
  1343    797    783 1
  1344    798    783 1
  1345    923    909 1
  1346    924    909 1
  1347   1083   1069 1
  1348   1084   1069 1
  1349   1115   1101 1
  1350   1116   1101 1
  1351   1241   1227 1
  1352   1242   1227 1
  1353    699    688 1
  1354    700    688 1
  1355    701    688 1
  1356    828    817 1
  1357    829    817 1
  1358    830    817 1
  1359    860    849 1
  1360    861    849 1
  1361    862    849 1
  1362   1017   1006 1
  1363   1018   1006 1
  1364   1019   1006 1
  1365   1146   1135 1
  1366   1147   1135 1
  1367   1148   1135 1
  1368   1178   1167 1
  1369   1179   1167 1
  1370   1180   1167 1
  1371    933   1273 1
  1372    955   1887 1
  1373   1281   1306 1
  1374   1314   1338 1
  1375   1346   1371 1
  1376   1379   1403 1
  1377   1411   1435 1
  1378   1443   1467 1
  1379   1475   1499 1
  1380   1507   1529 1
  1381   1537   1561 1
  1382   1599   1624 1
  1383   1632   1656 1
  1384   1664   1689 1
  1385   1697   1721 1
  1386   1729   1753 1
  1387   1761   1785 1
  1388   1793   1817 1
  1389   1825   1847 1
  1390   1855   1879 1
  1391   1273   1274 1
  1392   1273   1275 1
  1393   1273   1276 1
  1394   1276   1277 1
  1395   1277   1278 1
  1396   1278   1279 1
  1397   1278   1280 1
  1398   1279   1283 1
  1399   1280   1281 1
  1400   1280   1282 1
  1401   1282   1283 1
  1402   1283   1284 1
  1403   1284   1285 ar
  1404   1284   1294 ar
  1405   1285   1286 ar
  1406   1286   1287 ar
  1407   1287   1288 1
  1408   1287   1294 ar
  1409   1288   1289 2
  1410   1288   1290 am
  1411   1290   1291 1
  1412   1291   1292 2
  1413   1291   1293 2
  1414   1293   1294 1
  1415   1306   1307 1
  1416   1306   1308 1
  1417   1306   1309 1
  1418   1309   1310 1
  1419   1310   1311 1
  1420   1311   1312 1
  1421   1311   1313 1
  1422   1312   1316 1
  1423   1313   1314 1
  1424   1313   1315 1
  1425   1315   1316 1
  1426   1316   1317 1
  1427   1317   1318 am
  1428   1317   1325 1
  1429   1318   1319 2
  1430   1318   1320 am
  1431   1320   1321 am
  1432   1321   1322 2
  1433   1321   1323 1
  1434   1323   1324 1
  1435   1323   1325 2
  1436   1338   1339 1
  1437   1338   1340 1
  1438   1338   1341 1
  1439   1341   1342 1
  1440   1342   1343 1
  1441   1343   1344 1
  1442   1343   1345 1
  1443   1344   1348 1
  1444   1345   1346 1
  1445   1345   1347 1
  1446   1347   1348 1
  1447   1348   1349 1
  1448   1349   1350 ar
  1449   1349   1359 ar
  1450   1350   1351 ar
  1451   1351   1352 ar
  1452   1352   1353 1
  1453   1352   1359 ar
  1454   1353   1354 2
  1455   1353   1355 am
  1456   1355   1356 1
  1457   1356   1357 2
  1458   1356   1358 2
  1459   1358   1359 1
  1460   1371   1372 1
  1461   1371   1373 1
  1462   1371   1374 1
  1463   1374   1375 1
  1464   1375   1376 1
  1465   1376   1377 1
  1466   1376   1378 1
  1467   1377   1381 1
  1468   1378   1379 1
  1469   1378   1380 1
  1470   1380   1381 1
  1471   1381   1382 1
  1472   1382   1383 ar
  1473   1382   1391 ar
  1474   1383   1384 ar
  1475   1384   1385 ar
  1476   1385   1386 ar
  1477   1385   1391 ar
  1478   1386   1387 1
  1479   1386   1388 ar
  1480   1388   1389 ar
  1481   1389   1390 ar
  1482   1390   1391 ar
  1483   1403   1404 1
  1484   1403   1405 1
  1485   1403   1406 1
  1486   1406   1407 1
  1487   1407   1408 1
  1488   1408   1409 1
  1489   1408   1410 1
  1490   1409   1413 1
  1491   1410   1411 1
  1492   1410   1412 1
  1493   1412   1413 1
  1494   1413   1414 1
  1495   1414   1415 ar
  1496   1414   1423 ar
  1497   1415   1416 ar
  1498   1416   1417 ar
  1499   1417   1418 ar
  1500   1417   1423 ar
  1501   1418   1419 1
  1502   1418   1420 ar
  1503   1420   1421 ar
  1504   1421   1422 ar
  1505   1422   1423 ar
  1506   1435   1436 1
  1507   1435   1437 1
  1508   1435   1438 1
  1509   1438   1439 1
  1510   1439   1440 1
  1511   1440   1441 1
  1512   1440   1442 1
  1513   1441   1445 1
  1514   1442   1443 1
  1515   1442   1444 1
  1516   1444   1445 1
  1517   1445   1446 1
  1518   1446   1447 am
  1519   1446   1454 1
  1520   1447   1448 2
  1521   1447   1449 am
  1522   1449   1450 am
  1523   1450   1451 2
  1524   1450   1452 1
  1525   1452   1453 1
  1526   1452   1454 2
  1527   1467   1468 1
  1528   1467   1469 1
  1529   1467   1470 1
  1530   1470   1471 1
  1531   1471   1472 1
  1532   1472   1473 1
  1533   1472   1474 1
  1534   1473   1477 1
  1535   1474   1475 1
  1536   1474   1476 1
  1537   1476   1477 1
  1538   1477   1478 1
  1539   1478   1479 am
  1540   1478   1486 1
  1541   1479   1480 2
  1542   1479   1481 am
  1543   1481   1482 am
  1544   1482   1483 2
  1545   1482   1484 1
  1546   1484   1485 1
  1547   1484   1486 2
  1548   1499   1500 1
  1549   1499   1501 1
  1550   1499   1502 1
  1551   1502   1503 1
  1552   1503   1504 1
  1553   1504   1505 1
  1554   1504   1506 1
  1555   1505   1509 1
  1556   1506   1507 1
  1557   1506   1508 1
  1558   1508   1509 1
  1559   1509   1510 1
  1560   1510   1511 am
  1561   1510   1517 1
  1562   1511   1512 2
  1563   1511   1513 1
  1564   1513   1514 2
  1565   1514   1515 2
  1566   1514   1516 2
  1567   1516   1517 2
  1568   1529   1530 1
  1569   1529   1531 1
  1570   1529   1532 1
  1571   1532   1533 1
  1572   1533   1534 1
  1573   1534   1535 1
  1574   1534   1536 1
  1575   1535   1539 1
  1576   1536   1537 1
  1577   1536   1538 1
  1578   1538   1539 1
  1579   1539   1540 1
  1580   1540   1541 ar
  1581   1540   1549 ar
  1582   1541   1542 ar
  1583   1542   1543 ar
  1584   1543   1544 ar
  1585   1543   1549 ar
  1586   1544   1545 1
  1587   1544   1546 ar
  1588   1546   1547 ar
  1589   1547   1548 ar
  1590   1548   1549 ar
  1591   1561   1562 1
  1592   1561   1563 1
  1593   1561   1564 1
  1594   1564   1565 1
  1595   1565   1566 1
  1596   1566   1567 1
  1597   1566   1568 1
  1598   1567   1571 1
  1599   1568   1569 1
  1600   1568   1570 1
  1601   1570   1571 1
  1602   1571   1572 1
  1603   1572   1573 am
  1604   1572   1579 1
  1605   1573   1574 2
  1606   1573   1575 1
  1607   1575   1576 2
  1608   1576   1577 2
  1609   1576   1578 2
  1610   1578   1579 2
  1611   1591   1592 1
  1612   1591   1593 1
  1613   1591   1594 1
  1614   1594   1595 1
  1615   1595   1596 1
  1616   1596   1597 1
  1617   1596   1598 1
  1618   1597   1601 1
  1619   1598   1599 1
  1620   1598   1600 1
  1621   1600   1601 1
  1622   1601   1602 1
  1623   1602   1603 ar
  1624   1602   1612 ar
  1625   1603   1604 ar
  1626   1604   1605 ar
  1627   1605   1606 1
  1628   1605   1612 ar
  1629   1606   1607 2
  1630   1606   1608 am
  1631   1608   1609 1
  1632   1609   1610 2
  1633   1609   1611 2
  1634   1611   1612 1
  1635   1624   1625 1
  1636   1624   1626 1
  1637   1624   1627 1
  1638   1627   1628 1
  1639   1628   1629 1
  1640   1629   1630 1
  1641   1629   1631 1
  1642   1630   1634 1
  1643   1631   1632 1
  1644   1631   1633 1
  1645   1633   1634 1
  1646   1634   1635 1
  1647   1635   1636 am
  1648   1635   1643 1
  1649   1636   1637 2
  1650   1636   1638 am
  1651   1638   1639 am
  1652   1639   1640 2
  1653   1639   1641 1
  1654   1641   1642 1
  1655   1641   1643 2
  1656   1656   1657 1
  1657   1656   1658 1
  1658   1656   1659 1
  1659   1659   1660 1
  1660   1660   1661 1
  1661   1661   1662 1
  1662   1661   1663 1
  1663   1662   1666 1
  1664   1663   1664 1
  1665   1663   1665 1
  1666   1665   1666 1
  1667   1666   1667 1
  1668   1667   1668 ar
  1669   1667   1677 ar
  1670   1668   1669 ar
  1671   1669   1670 ar
  1672   1670   1671 1
  1673   1670   1677 ar
  1674   1671   1672 2
  1675   1671   1673 am
  1676   1673   1674 1
  1677   1674   1675 2
  1678   1674   1676 2
  1679   1676   1677 1
  1680   1689   1690 1
  1681   1689   1691 1
  1682   1689   1692 1
  1683   1692   1693 1
  1684   1693   1694 1
  1685   1694   1695 1
  1686   1694   1696 1
  1687   1695   1699 1
  1688   1696   1697 1
  1689   1696   1698 1
  1690   1698   1699 1
  1691   1699   1700 1
  1692   1700   1701 ar
  1693   1700   1709 ar
  1694   1701   1702 ar
  1695   1702   1703 ar
  1696   1703   1704 ar
  1697   1703   1709 ar
  1698   1704   1705 1
  1699   1704   1706 ar
  1700   1706   1707 ar
  1701   1707   1708 ar
  1702   1708   1709 ar
  1703   1721   1722 1
  1704   1721   1723 1
  1705   1721   1724 1
  1706   1724   1725 1
  1707   1725   1726 1
  1708   1726   1727 1
  1709   1726   1728 1
  1710   1727   1731 1
  1711   1728   1729 1
  1712   1728   1730 1
  1713   1730   1731 1
  1714   1731   1732 1
  1715   1732   1733 ar
  1716   1732   1741 ar
  1717   1733   1734 ar
  1718   1734   1735 ar
  1719   1735   1736 ar
  1720   1735   1741 ar
  1721   1736   1737 1
  1722   1736   1738 ar
  1723   1738   1739 ar
  1724   1739   1740 ar
  1725   1740   1741 ar
  1726   1753   1754 1
  1727   1753   1755 1
  1728   1753   1756 1
  1729   1756   1757 1
  1730   1757   1758 1
  1731   1758   1759 1
  1732   1758   1760 1
  1733   1759   1763 1
  1734   1760   1761 1
  1735   1760   1762 1
  1736   1762   1763 1
  1737   1763   1764 1
  1738   1764   1765 am
  1739   1764   1772 1
  1740   1765   1766 2
  1741   1765   1767 am
  1742   1767   1768 am
  1743   1768   1769 2
  1744   1768   1770 1
  1745   1770   1771 1
  1746   1770   1772 2
  1747   1785   1786 1
  1748   1785   1787 1
  1749   1785   1788 1
  1750   1788   1789 1
  1751   1789   1790 1
  1752   1790   1791 1
  1753   1790   1792 1
  1754   1791   1795 1
  1755   1792   1793 1
  1756   1792   1794 1
  1757   1794   1795 1
  1758   1795   1796 1
  1759   1796   1797 am
  1760   1796   1804 1
  1761   1797   1798 2
  1762   1797   1799 am
  1763   1799   1800 am
  1764   1800   1801 2
  1765   1800   1802 1
  1766   1802   1803 1
  1767   1802   1804 2
  1768   1817   1818 1
  1769   1817   1819 1
  1770   1817   1820 1
  1771   1820   1821 1
  1772   1821   1822 1
  1773   1822   1823 1
  1774   1822   1824 1
  1775   1823   1827 1
  1776   1824   1825 1
  1777   1824   1826 1
  1778   1826   1827 1
  1779   1827   1828 1
  1780   1828   1829 am
  1781   1828   1835 1
  1782   1829   1830 2
  1783   1829   1831 1
  1784   1831   1832 2
  1785   1832   1833 2
  1786   1832   1834 2
  1787   1834   1835 2
  1788   1847   1848 1
  1789   1847   1849 1
  1790   1847   1850 1
  1791   1850   1851 1
  1792   1851   1852 1
  1793   1852   1853 1
  1794   1852   1854 1
  1795   1853   1857 1
  1796   1854   1855 1
  1797   1854   1856 1
  1798   1856   1857 1
  1799   1857   1858 1
  1800   1858   1859 ar
  1801   1858   1867 ar
  1802   1859   1860 ar
  1803   1860   1861 ar
  1804   1861   1862 ar
  1805   1861   1867 ar
  1806   1862   1863 1
  1807   1862   1864 ar
  1808   1864   1865 ar
  1809   1865   1866 ar
  1810   1866   1867 ar
  1811   1879   1880 1
  1812   1879   1881 1
  1813   1879   1882 1
  1814   1882   1883 1
  1815   1883   1884 1
  1816   1884   1885 1
  1817   1884   1886 1
  1818   1885   1889 1
  1819   1886   1887 1
  1820   1886   1888 1
  1821   1888   1889 1
  1822   1889   1890 1
  1823   1890   1891 am
  1824   1890   1897 1
  1825   1891   1892 2
  1826   1891   1893 1
  1827   1893   1894 2
  1828   1894   1895 2
  1829   1894   1896 2
  1830   1896   1897 2
  1831   1295   1277 1
  1832   1296   1277 1
  1833   1297   1278 1
  1834   1298   1280 1
  1835   1299   1282 1
  1836   1300   1282 1
  1837   1301   1283 1
  1838   1302   1285 1
  1839   1303   1290 1
  1840   1326   1310 1
  1841   1327   1310 1
  1842   1328   1311 1
  1843   1329   1313 1
  1844   1330   1315 1
  1845   1331   1315 1
  1846   1332   1316 1
  1847   1333   1320 1
  1848   1334   1325 1
  1849   1360   1342 1
  1850   1361   1342 1
  1851   1362   1343 1
  1852   1363   1345 1
  1853   1364   1347 1
  1854   1365   1347 1
  1855   1366   1348 1
  1856   1367   1350 1
  1857   1368   1355 1
  1858   1392   1375 1
  1859   1393   1375 1
  1860   1394   1376 1
  1861   1395   1378 1
  1862   1396   1380 1
  1863   1397   1380 1
  1864   1398   1381 1
  1865   1399   1383 1
  1866   1400   1389 1
  1867   1424   1407 1
  1868   1425   1407 1
  1869   1426   1408 1
  1870   1427   1410 1
  1871   1428   1412 1
  1872   1429   1412 1
  1873   1430   1413 1
  1874   1431   1415 1
  1875   1432   1421 1
  1876   1455   1439 1
  1877   1456   1439 1
  1878   1457   1440 1
  1879   1458   1442 1
  1880   1459   1444 1
  1881   1460   1444 1
  1882   1461   1445 1
  1883   1462   1449 1
  1884   1463   1454 1
  1885   1487   1471 1
  1886   1488   1471 1
  1887   1489   1472 1
  1888   1490   1474 1
  1889   1491   1476 1
  1890   1492   1476 1
  1891   1493   1477 1
  1892   1494   1481 1
  1893   1495   1486 1
  1894   1518   1503 1
  1895   1519   1503 1
  1896   1520   1504 1
  1897   1521   1506 1
  1898   1522   1508 1
  1899   1523   1508 1
  1900   1524   1509 1
  1901   1525   1516 1
  1902   1526   1517 1
  1903   1550   1533 1
  1904   1551   1533 1
  1905   1552   1534 1
  1906   1553   1536 1
  1907   1554   1538 1
  1908   1555   1538 1
  1909   1556   1539 1
  1910   1557   1541 1
  1911   1558   1547 1
  1912   1580   1565 1
  1913   1581   1565 1
  1914   1582   1566 1
  1915   1583   1568 1
  1916   1584   1570 1
  1917   1585   1570 1
  1918   1586   1571 1
  1919   1587   1578 1
  1920   1588   1579 1
  1921   1613   1595 1
  1922   1614   1595 1
  1923   1615   1596 1
  1924   1616   1598 1
  1925   1617   1600 1
  1926   1618   1600 1
  1927   1619   1601 1
  1928   1620   1603 1
  1929   1621   1608 1
  1930   1644   1628 1
  1931   1645   1628 1
  1932   1646   1629 1
  1933   1647   1631 1
  1934   1648   1633 1
  1935   1649   1633 1
  1936   1650   1634 1
  1937   1651   1638 1
  1938   1652   1643 1
  1939   1678   1660 1
  1940   1679   1660 1
  1941   1680   1661 1
  1942   1681   1663 1
  1943   1682   1665 1
  1944   1683   1665 1
  1945   1684   1666 1
  1946   1685   1668 1
  1947   1686   1673 1
  1948   1710   1693 1
  1949   1711   1693 1
  1950   1712   1694 1
  1951   1713   1696 1
  1952   1714   1698 1
  1953   1715   1698 1
  1954   1716   1699 1
  1955   1717   1701 1
  1956   1718   1707 1
  1957   1742   1725 1
  1958   1743   1725 1
  1959   1744   1726 1
  1960   1745   1728 1
  1961   1746   1730 1
  1962   1747   1730 1
  1963   1748   1731 1
  1964   1749   1733 1
  1965   1750   1739 1
  1966   1773   1757 1
  1967   1774   1757 1
  1968   1775   1758 1
  1969   1776   1760 1
  1970   1777   1762 1
  1971   1778   1762 1
  1972   1779   1763 1
  1973   1780   1767 1
  1974   1781   1772 1
  1975   1805   1789 1
  1976   1806   1789 1
  1977   1807   1790 1
  1978   1808   1792 1
  1979   1809   1794 1
  1980   1810   1794 1
  1981   1811   1795 1
  1982   1812   1799 1
  1983   1813   1804 1
  1984   1836   1821 1
  1985   1837   1821 1
  1986   1838   1822 1
  1987   1839   1824 1
  1988   1840   1826 1
  1989   1841   1826 1
  1990   1842   1827 1
  1991   1843   1834 1
  1992   1844   1835 1
  1993   1868   1851 1
  1994   1869   1851 1
  1995   1870   1852 1
  1996   1871   1854 1
  1997   1872   1856 1
  1998   1873   1856 1
  1999   1874   1857 1
  2000   1875   1859 1
  2001   1876   1865 1
  2002   1898   1883 1
  2003   1899   1883 1
  2004   1900   1884 1
  2005   1901   1886 1
  2006   1902   1888 1
  2007   1903   1888 1
  2008   1904   1889 1
  2009   1905   1896 1
  2010   1906   1897 1
  2011   1304   1292 1
  2012   1305   1292 1
  2013   1369   1357 1
  2014   1370   1357 1
  2015   1527   1515 1
  2016   1528   1515 1
  2017   1589   1577 1
  2018   1590   1577 1
  2019   1622   1610 1
  2020   1623   1610 1
  2021   1687   1675 1
  2022   1688   1675 1
  2023   1845   1833 1
  2024   1846   1833 1
  2025   1907   1895 1
  2026   1908   1895 1
  2027   1401   1387 1
  2028   1402   1387 1
  2029   1433   1419 1
  2030   1434   1419 1
  2031   1559   1545 1
  2032   1560   1545 1
  2033   1719   1705 1
  2034   1720   1705 1
  2035   1751   1737 1
  2036   1752   1737 1
  2037   1877   1863 1
  2038   1878   1863 1
  2039   1335   1324 1
  2040   1336   1324 1
  2041   1337   1324 1
  2042   1464   1453 1
  2043   1465   1453 1
  2044   1466   1453 1
  2045   1496   1485 1
  2046   1497   1485 1
  2047   1498   1485 1
  2048   1653   1642 1
  2049   1654   1642 1
  2050   1655   1642 1
  2051   1782   1771 1
  2052   1783   1771 1
  2053   1784   1771 1
  2054   1814   1803 1
  2055   1815   1803 1
  2056   1816   1803 1
  2057   1569   1909 1
  2058   1591   2141 1
  2059   1917   1942 1
  2060   1950   1974 1
  2061   1982   2007 1
  2062   2047   2071 1
  2063   2079   2101 1
  2064   2109   2133 1
  2065   1909   1910 1
  2066   1909   1911 1
  2067   1909   1912 1
  2068   1912   1913 1
  2069   1913   1914 1
  2070   1914   1915 1
  2071   1914   1916 1
  2072   1915   1919 1
  2073   1916   1917 1
  2074   1916   1918 1
  2075   1918   1919 1
  2076   1919   1920 1
  2077   1920   1921 ar
  2078   1920   1930 ar
  2079   1921   1922 ar
  2080   1922   1923 ar
  2081   1923   1924 1
  2082   1923   1930 ar
  2083   1924   1925 2
  2084   1924   1926 am
  2085   1926   1927 1
  2086   1927   1928 2
  2087   1927   1929 2
  2088   1929   1930 1
  2089   1942   1943 1
  2090   1942   1944 1
  2091   1942   1945 1
  2092   1945   1946 1
  2093   1946   1947 1
  2094   1947   1948 1
  2095   1947   1949 1
  2096   1948   1952 1
  2097   1949   1950 1
  2098   1949   1951 1
  2099   1951   1952 1
  2100   1952   1953 1
  2101   1953   1954 am
  2102   1953   1961 1
  2103   1954   1955 2
  2104   1954   1956 am
  2105   1956   1957 am
  2106   1957   1958 2
  2107   1957   1959 1
  2108   1959   1960 1
  2109   1959   1961 2
  2110   1974   1975 1
  2111   1974   1976 1
  2112   1974   1977 1
  2113   1977   1978 1
  2114   1978   1979 1
  2115   1979   1980 1
  2116   1979   1981 1
  2117   1980   1984 1
  2118   1981   1982 1
  2119   1981   1983 1
  2120   1983   1984 1
  2121   1984   1985 1
  2122   1985   1986 ar
  2123   1985   1995 ar
  2124   1986   1987 ar
  2125   1987   1988 ar
  2126   1988   1989 1
  2127   1988   1995 ar
  2128   1989   1990 2
  2129   1989   1991 am
  2130   1991   1992 1
  2131   1992   1993 2
  2132   1992   1994 2
  2133   1994   1995 1
  2134   2007   2008 1
  2135   2007   2009 1
  2136   2007   2010 1
  2137   2010   2011 1
  2138   2011   2012 1
  2139   2012   2013 1
  2140   2012   2014 1
  2141   2013   2017 1
  2142   2014   2015 1
  2143   2014   2016 1
  2144   2016   2017 1
  2145   2017   2018 1
  2146   2018   2019 ar
  2147   2018   2027 ar
  2148   2019   2020 ar
  2149   2020   2021 ar
  2150   2021   2022 ar
  2151   2021   2027 ar
  2152   2022   2023 1
  2153   2022   2024 ar
  2154   2024   2025 ar
  2155   2025   2026 ar
  2156   2026   2027 ar
  2157   2039   2040 1
  2158   2039   2041 1
  2159   2039   2042 1
  2160   2042   2043 1
  2161   2043   2044 1
  2162   2044   2045 1
  2163   2044   2046 1
  2164   2045   2049 1
  2165   2046   2047 1
  2166   2046   2048 1
  2167   2048   2049 1
  2168   2049   2050 1
  2169   2050   2051 am
  2170   2050   2058 1
  2171   2051   2052 2
  2172   2051   2053 am
  2173   2053   2054 am
  2174   2054   2055 2
  2175   2054   2056 1
  2176   2056   2057 1
  2177   2056   2058 2
  2178   2071   2072 1
  2179   2071   2073 1
  2180   2071   2074 1
  2181   2074   2075 1
  2182   2075   2076 1
  2183   2076   2077 1
  2184   2076   2078 1
  2185   2077   2081 1
  2186   2078   2079 1
  2187   2078   2080 1
  2188   2080   2081 1
  2189   2081   2082 1
  2190   2082   2083 am
  2191   2082   2089 1
  2192   2083   2084 2
  2193   2083   2085 1
  2194   2085   2086 2
  2195   2086   2087 2
  2196   2086   2088 2
  2197   2088   2089 2
  2198   2101   2102 1
  2199   2101   2103 1
  2200   2101   2104 1
  2201   2104   2105 1
  2202   2105   2106 1
  2203   2106   2107 1
  2204   2106   2108 1
  2205   2107   2111 1
  2206   2108   2109 1
  2207   2108   2110 1
  2208   2110   2111 1
  2209   2111   2112 1
  2210   2112   2113 ar
  2211   2112   2121 ar
  2212   2113   2114 ar
  2213   2114   2115 ar
  2214   2115   2116 ar
  2215   2115   2121 ar
  2216   2116   2117 1
  2217   2116   2118 ar
  2218   2118   2119 ar
  2219   2119   2120 ar
  2220   2120   2121 ar
  2221   2133   2134 1
  2222   2133   2135 1
  2223   2133   2136 1
  2224   2136   2137 1
  2225   2137   2138 1
  2226   2138   2139 1
  2227   2138   2140 1
  2228   2139   2143 1
  2229   2140   2141 1
  2230   2140   2142 1
  2231   2142   2143 1
  2232   2143   2144 1
  2233   2144   2145 am
  2234   2144   2151 1
  2235   2145   2146 2
  2236   2145   2147 1
  2237   2147   2148 2
  2238   2148   2149 2
  2239   2148   2150 2
  2240   2150   2151 2
  2241   1931   1913 1
  2242   1932   1913 1
  2243   1933   1914 1
  2244   1934   1916 1
  2245   1935   1918 1
  2246   1936   1918 1
  2247   1937   1919 1
  2248   1938   1921 1
  2249   1939   1926 1
  2250   1962   1946 1
  2251   1963   1946 1
  2252   1964   1947 1
  2253   1965   1949 1
  2254   1966   1951 1
  2255   1967   1951 1
  2256   1968   1952 1
  2257   1969   1956 1
  2258   1970   1961 1
  2259   1996   1978 1
  2260   1997   1978 1
  2261   1998   1979 1
  2262   1999   1981 1
  2263   2000   1983 1
  2264   2001   1983 1
  2265   2002   1984 1
  2266   2003   1986 1
  2267   2004   1991 1
  2268   2028   2011 1
  2269   2029   2011 1
  2270   2030   2012 1
  2271   2031   2014 1
  2272   2032   2016 1
  2273   2033   2016 1
  2274   2034   2017 1
  2275   2035   2019 1
  2276   2036   2025 1
  2277   2059   2043 1
  2278   2060   2043 1
  2279   2061   2044 1
  2280   2062   2046 1
  2281   2063   2048 1
  2282   2064   2048 1
  2283   2065   2049 1
  2284   2066   2053 1
  2285   2067   2058 1
  2286   2090   2075 1
  2287   2091   2075 1
  2288   2092   2076 1
  2289   2093   2078 1
  2290   2094   2080 1
  2291   2095   2080 1
  2292   2096   2081 1
  2293   2097   2088 1
  2294   2098   2089 1
  2295   2122   2105 1
  2296   2123   2105 1
  2297   2124   2106 1
  2298   2125   2108 1
  2299   2126   2110 1
  2300   2127   2110 1
  2301   2128   2111 1
  2302   2129   2113 1
  2303   2130   2119 1
  2304   2152   2137 1
  2305   2153   2137 1
  2306   2154   2138 1
  2307   2155   2140 1
  2308   2156   2142 1
  2309   2157   2142 1
  2310   2158   2143 1
  2311   2159   2150 1
  2312   2160   2151 1
  2313   1940   1928 1
  2314   1941   1928 1
  2315   2005   1993 1
  2316   2006   1993 1
  2317   2099   2087 1
  2318   2100   2087 1
  2319   2161   2149 1
  2320   2162   2149 1
  2321   2037   2023 1
  2322   2038   2023 1
  2323   2131   2117 1
  2324   2132   2117 1
  2325   1971   1960 1
  2326   1972   1960 1
  2327   1973   1960 1
  2328   2068   2057 1
  2329   2069   2057 1
  2330   2070   2057 1
@<TRIPOS>MOLECULE
dna-seg-28-bp33
2100 2263 1 0 0
BIOPOLYMER
NO_CHARGES


@<TRIPOS>ATOM
      1 P          3.2418    -9.7206  3065.5508 P.3      935 DA      0.0000
      2 OP1        4.1241   -10.7463  3064.8838 O.co2    935 DA      0.0000
      3 OP2        2.1504   -10.2684  3066.3817 O.co2    935 DA      0.0000
      4 O5'        4.2596    -8.6127  3066.0817 O.3      935 DA      0.0000
      5 C5'        5.2361    -7.9786  3065.2573 C.3      935 DA      0.0000
      6 C4'        5.4512    -6.5689  3065.7796 C.3      935 DA      0.0000
      7 O4'        4.2510    -5.8494  3065.8078 O.3      935 DA      0.0000
      8 C3'        6.0956    -6.4198  3067.1469 C.3      935 DA      0.0000
      9 O3'        7.3589    -5.7597  3067.0691 O.3      935 DA      0.0000
     10 C2'        5.0298    -5.6921  3067.9757 C.3      935 DA      0.0000
     11 C1'        4.2006    -4.9757  3066.9819 C.3      935 DA      0.0000
     12 N9         2.7749    -4.7134  3067.2499 N.ar     935 DA      0.0000
     13 C8         1.7221    -5.5885  3067.3651 C.ar     935 DA      0.0000
     14 N7         0.5577    -5.0081  3067.5344 N.ar     935 DA      0.0000
     15 C5         0.8559    -3.6497  3067.4974 C.ar     935 DA      0.0000
     16 C6         0.0315    -2.4949  3067.6179 C.ar     935 DA      0.0000
     17 N6        -1.2817    -2.5025  3067.8095 N.pl3    935 DA      0.0000
     18 N1         0.6811    -1.2899  3067.5197 N.ar     935 DA      0.0000
     19 C2         2.0318    -1.2419  3067.3306 C.ar     935 DA      0.0000
     20 N3         2.8573    -2.2768  3067.2227 N.ar     935 DA      0.0000
     21 C4         2.2051    -3.4531  3067.3146 C.ar     935 DA      0.0000
     22 H5'        4.8816    -7.9406  3064.2273 H        935 DA      0.0000
     23 H5''       6.1727    -8.5344  3065.3033 H        935 DA      0.0000
     24 H4'        6.1040    -6.0650  3065.0669 H        935 DA      0.0000
     25 H3'        6.2473    -7.4127  3067.5701 H        935 DA      0.0000
     26 H2'        4.4260    -6.4060  3068.5359 H        935 DA      0.0000
     27 H2''       5.5009    -4.9820  3068.6553 H        935 DA      0.0000
     28 H1'        4.6883    -4.0325  3066.7358 H        935 DA      0.0000
     29 H8         1.8424    -6.6608  3067.3203 H        935 DA      0.0000
     30 H2         2.4758    -0.2599  3067.2614 H        935 DA      0.0000
     31 H61       -1.7740    -3.3219  3068.1357 H        935 DA      0.0000
     32 H62       -1.8068    -1.6602  3067.6227 H        935 DA      0.0000
     33 P          8.6404    -6.0557  3068.0253 P.3      936 DT      0.0000
     34 OP1        9.9396    -6.0792  3067.2280 O.co2    936 DT      0.0000
     35 OP2        8.4070    -7.2256  3068.8459 O.co2    936 DT      0.0000
     36 O5'        8.7796    -4.6332  3068.8390 O.3      936 DT      0.0000
     37 C5'        8.5316    -3.5063  3067.8939 C.3      936 DT      0.0000
     38 C4'        7.6860    -2.5381  3068.6817 C.3      936 DT      0.0000
     39 O4'        6.3583    -2.9719  3068.8736 O.3      936 DT      0.0000
     40 C3'        8.2408    -2.2998  3070.0982 C.3      936 DT      0.0000
     41 O3'        9.0000    -1.1050  3070.0999 O.3      936 DT      0.0000
     42 C2'        7.0058    -2.2767  3070.9955 C.3      936 DT      0.0000
     43 C1'        5.8954    -2.1482  3070.0309 C.3      936 DT      0.0000
     44 N1         4.5621    -2.6191  3070.3706 N.am     936 DT      0.0000
     45 C2         3.5705    -1.6529  3070.5086 C.2      936 DT      0.0000
     46 O2         3.8600    -0.4666  3070.4205 O.2      936 DT      0.0000
     47 N3         2.2980    -2.0676  3070.7626 N.am     936 DT      0.0000
     48 C4         1.9619    -3.3857  3070.8827 C.2      936 DT      0.0000
     49 O4         0.7536    -3.6920  3071.1379 O.2      936 DT      0.0000
     50 C5         2.9959    -4.3641  3070.7111 C.2      936 DT      0.0000
     51 C7         2.6748    -5.8304  3070.7986 C.3      936 DT      0.0000
     52 C6         4.2488    -3.9498  3070.4554 C.2      936 DT      0.0000
     53 H5'        9.4705    -3.0419  3067.5923 H        936 DT      0.0000
     54 H5''       7.9861    -3.8596  3067.0189 H        936 DT      0.0000
     55 H4'        7.6662    -1.5853  3068.1525 H        936 DT      0.0000
     56 H3'        8.8798    -3.1358  3070.3826 H        936 DT      0.0000
     57 H2'        6.9213    -3.1998  3071.5689 H        936 DT      0.0000
     58 H2''       7.0342    -1.4147  3071.6619 H        936 DT      0.0000
     59 H1'        5.8275    -1.1076  3069.7135 H        936 DT      0.0000
     60 H3         1.5734    -1.3717  3070.8663 H        936 DT      0.0000
     61 H6         5.0277    -4.6843  3070.3132 H        936 DT      0.0000
     62 H71        1.6135    -5.9584  3071.0117 H        936 DT      0.0000
     63 H72        2.9155    -6.3120  3069.8509 H        936 DT      0.0000
     64 H73        3.2628    -6.2842  3071.5964 H        936 DT      0.0000
     65 P          9.9300    -0.5392  3071.2065 P.3      937 DT      0.0000
     66 OP1       10.9628     0.4423  3070.5945 O.co2    937 DT      0.0000
     67 OP2       10.5896    -1.7119  3071.8365 O.co2    937 DT      0.0000
     68 O5'        8.9775     0.4021  3072.0889 O.3      937 DT      0.0000
     69 C5'        8.5718     1.6019  3071.3771 C.3      937 DT      0.0000
     70 C4'        7.3759     2.1769  3072.0532 C.3      937 DT      0.0000
     71 O4'        6.2376     1.3246  3072.0299 O.3      937 DT      0.0000
     72 C3'        7.6043     2.5699  3073.5199 C.3      937 DT      0.0000
     73 O3'        7.0219     3.8322  3073.7839 O.3      937 DT      0.0000
     74 C2'        6.8121     1.4635  3074.2562 C.3      937 DT      0.0000
     75 C1'        5.5959     1.4553  3073.3527 C.3      937 DT      0.0000
     76 N1         4.7314     0.3283  3073.6504 N.am     937 DT      0.0000
     77 C2         3.3635     0.5411  3073.7052 C.2      937 DT      0.0000
     78 O2         2.9290     1.6782  3073.5167 O.2      937 DT      0.0000
     79 N3         2.5535    -0.5269  3073.9711 N.am     937 DT      0.0000
     80 C4         3.0473    -1.7783  3074.1781 C.2      937 DT      0.0000
     81 O4         2.2353    -2.7213  3074.4014 O.2      937 DT      0.0000
     82 C5         4.4559    -1.9863  3074.1130 C.2      937 DT      0.0000
     83 C7         5.0762    -3.3368  3074.3229 C.3      937 DT      0.0000
     84 C6         5.2367    -0.9263  3073.8519 C.2      937 DT      0.0000
     85 H5'        9.3846     2.3282  3071.3895 H        937 DT      0.0000
     86 H5''       8.3230     1.3492  3070.3464 H        937 DT      0.0000
     87 H4'        7.1080     3.0860  3071.5148 H        937 DT      0.0000
     88 H3'        8.6620     2.5511  3073.7823 H        937 DT      0.0000
     89 H2'        7.3360     0.5077  3074.2550 H        937 DT      0.0000
     90 H2''       6.5510     1.7706  3075.2689 H        937 DT      0.0000
     91 H1'        5.0491     2.3952  3073.4283 H        937 DT      0.0000
     92 H3         1.5548    -0.3827  3074.0155 H        937 DT      0.0000
     93 H6         6.3058    -1.0699  3073.7988 H        937 DT      0.0000
     94 H71        4.2940    -4.0695  3074.5219 H        937 DT      0.0000
     95 H72        5.6261    -3.6268  3073.4277 H        937 DT      0.0000
     96 H73        5.7592    -3.2951  3075.1713 H        937 DT      0.0000
     97 P          7.5002     5.1977  3074.3919 P.3      938 DC      0.0000
     98 OP1        7.6177     6.2681  3073.3239 O.co2    938 DC      0.0000
     99 OP2        8.7393     4.8845  3075.1268 O.co2    938 DC      0.0000
    100 O5'        6.1309     5.5182  3075.2179 O.3      938 DC      0.0000
    101 C5'        5.0749     5.3955  3074.1956 C.3      938 DC      0.0000
    102 C4'        3.7607     5.6067  3074.8921 C.3      938 DC      0.0000
    103 O4'        3.0859     4.4122  3075.1390 O.3      938 DC      0.0000
    104 C3'        3.8351     6.4134  3076.1836 C.3      938 DC      0.0000
    105 O3'        2.9861     7.5508  3076.1039 O.3      938 DC      0.0000
    106 C2'        3.5183     5.3451  3077.2324 C.3      938 DC      0.0000
    107 C1'        2.6396     4.3830  3076.5359 C.3      938 DC      0.0000
    108 N1         2.8066     2.9647  3076.8681 N.am     938 DC      0.0000
    109 C2         1.6338     2.2575  3077.1239 C.2      938 DC      0.0000
    110 O2         0.5334     2.8178  3077.1283 O.2      938 DC      0.0000
    111 N3         1.7504     0.9171  3077.3977 N.2      938 DC      0.0000
    112 C4         2.9621     0.2909  3077.3878 C.2      938 DC      0.0000
    113 N4         2.9713    -1.0084  3077.6646 N.pl3    938 DC      0.0000
    114 C5         4.1408     1.0174  3077.1098 C.2      938 DC      0.0000
    115 C6         4.0099     2.3335  3076.8450 C.2      938 DC      0.0000
    116 H5'        5.2137     6.1507  3073.4220 H        938 DC      0.0000
    117 H5''       5.1030     4.4005  3073.7514 H        938 DC      0.0000
    118 H4'        3.1359     6.1786  3074.2062 H        938 DC      0.0000
    119 H3'        4.8613     6.7517  3076.3269 H        938 DC      0.0000
    120 H2'        4.4318     4.8559  3077.5703 H        938 DC      0.0000
    121 H2''       2.9942     5.7906  3078.0779 H        938 DC      0.0000
    122 H1'        1.5943     4.6813  3076.6169 H        938 DC      0.0000
    123 H5         5.1087     0.5382  3077.1092 H        938 DC      0.0000
    124 H6         4.8935     2.9066  3076.6059 H        938 DC      0.0000
    125 H41        2.1053    -1.4884  3077.8638 H        938 DC      0.0000
    126 H42        3.8443    -1.5160  3077.6759 H        938 DC      0.0000
    127 P          3.0459     8.8636  3077.0560 P.3      939 DA      0.0000
    128 OP1        2.4571    10.0140  3076.2622 O.co2    939 DA      0.0000
    129 OP2        4.4613     9.1067  3077.4015 O.co2    939 DA      0.0000
    130 O5'        2.1189     8.4556  3078.3530 O.3      939 DA      0.0000
    131 C5'        0.7734     7.9703  3078.0577 C.3      939 DA      0.0000
    132 C4'        0.0849     7.5447  3079.3130 C.3      939 DA      0.0000
    133 O4'        0.0811     6.1346  3079.5552 O.3      939 DA      0.0000
    134 C3'        0.6825     8.0963  3080.6183 C.3      939 DA      0.0000
    135 O3'       -0.3037     7.9973  3081.6482 O.3      939 DA      0.0000
    136 C2'        1.8078     7.0644  3080.8329 C.3      939 DA      0.0000
    137 C1'        0.9375     5.8165  3080.6496 C.3      939 DA      0.0000
    138 N9         1.7932     4.6459  3080.5553 N.ar     939 DA      0.0000
    139 C8         3.1518     4.5429  3080.4394 C.ar     939 DA      0.0000
    140 N7         3.6180     3.3070  3080.4208 N.ar     939 DA      0.0000
    141 C5         2.4702     2.5345  3080.5284 C.ar     939 DA      0.0000
    142 C6         2.2697     1.1325  3080.5629 C.ar     939 DA      0.0000
    143 N6         3.2354     0.2353  3080.4776 N.pl3    939 DA      0.0000
    144 N1         0.9769     0.7130  3080.6955 N.ar     939 DA      0.0000
    145 C2        -0.0558     1.6089  3080.7756 C.ar     939 DA      0.0000
    146 N3         0.0526     2.9351  3080.7458 N.ar     939 DA      0.0000
    147 C4         1.3424     3.3335  3080.6228 C.ar     939 DA      0.0000
    148 H5'        0.1994     8.7682  3077.5866 H        939 DA      0.0000
    149 H5''       0.8375     7.1218  3077.3765 H        939 DA      0.0000
    150 H4'       -0.9517     7.8762  3079.2541 H        939 DA      0.0000
    151 H3'        1.0647     9.1107  3080.5046 H        939 DA      0.0000
    152 H2'        2.5943     7.1403  3080.0821 H        939 DA      0.0000
    153 H2''       2.2140     7.1220  3081.8427 H        939 DA      0.0000
    154 H1'        0.3173     5.7071  3081.5392 H        939 DA      0.0000
    155 H8         3.7955     5.4071  3080.3684 H        939 DA      0.0000
    156 H2        -1.0512     1.2011  3080.8721 H        939 DA      0.0000
    157 H61        3.2918    -0.7570  3080.6577 H        939 DA      0.0000
    158 H62        4.1108     0.6284  3080.1629 H        939 DA      0.0000
    159 P         -1.4744     9.0790  3081.7887 P.3      940 DC      0.0000
    160 OP1       -1.6990     9.8666  3080.5435 O.co2    940 DC      0.0000
    161 OP2       -0.9903     9.9238  3082.9315 O.co2    940 DC      0.0000
    162 O5'       -2.7580     8.1920  3082.0718 O.3      940 DC      0.0000
    163 C5'       -3.4897     7.5498  3080.9841 C.3      940 DC      0.0000
    164 C4'       -4.0696     6.3184  3081.6891 C.3      940 DC      0.0000
    165 O4'       -2.9920     5.4664  3082.0010 O.3      940 DC      0.0000
    166 C3'       -4.7849     6.6389  3082.9990 C.3      940 DC      0.0000
    167 O3'       -6.1142     6.0750  3083.0669 O.3      940 DC      0.0000
    168 C2'       -3.8390     6.0966  3084.0812 C.3      940 DC      0.0000
    169 C1'       -3.2032     4.9504  3083.4050 C.3      940 DC      0.0000
    170 N1        -1.8566     4.5080  3083.7578 N.am     940 DC      0.0000
    171 C2        -1.6605     3.1285  3083.7309 C.2      940 DC      0.0000
    172 O2        -2.5700     2.3350  3083.5240 O.2      940 DC      0.0000
    173 N3        -0.4050     2.6708  3083.9840 N.2      940 DC      0.0000
    174 C4         0.6393     3.5020  3084.2174 C.2      940 DC      0.0000
    175 N4         1.8216     2.9344  3084.4483 N.pl3    940 DC      0.0000
    176 C5         0.4293     4.9085  3084.2240 C.2      940 DC      0.0000
    177 C6        -0.8123     5.3527  3083.9745 C.2      940 DC      0.0000
    178 H5'       -4.2784     8.1962  3080.5993 H        940 DC      0.0000
    179 H5''      -2.8104     7.2526  3080.1851 H        940 DC      0.0000
    180 H4'       -4.7563     5.8045  3081.0164 H        940 DC      0.0000
    181 H3'       -4.8563     7.7214  3083.1048 H        940 DC      0.0000
    182 H2'       -3.0995     6.8441  3084.3682 H        940 DC      0.0000
    183 H2''      -4.4040     5.7627  3084.9514 H        940 DC      0.0000
    184 H1'       -3.8845     4.0996  3083.3917 H        940 DC      0.0000
    185 H5         1.2396     5.5942  3084.4225 H        940 DC      0.0000
    186 H6        -0.9886     6.4178  3083.9448 H        940 DC      0.0000
    187 H41        1.9096     1.9284  3084.4373 H        940 DC      0.0000
    188 H42        2.6304     3.5101  3084.6345 H        940 DC      0.0000
    189 P          4.9888    -6.8672  3086.0264 P.3      940 DG      0.0000
    190 OP1        5.9148    -8.0280  3086.2051 O.co2    940 DG      0.0000
    191 OP2        5.4461    -5.9010  3084.9415 O.co2    940 DG      0.0000
    192 O5'        3.4528    -7.4213  3085.8191 O.3      940 DG      0.0000
    193 C5'        2.4888    -7.2803  3086.9149 C.3      940 DG      0.0000
    194 C4'        1.1416    -6.9425  3086.2806 C.3      940 DG      0.0000
    195 O4'        0.9384    -5.5591  3086.1848 O.3      940 DG      0.0000
    196 C3'        0.9471    -7.5031  3084.8743 C.3      940 DG      0.0000
    197 O3'       -0.3858    -7.9972  3084.6073 O.3      940 DG      0.0000
    198 C2'        1.2960    -6.3057  3083.9720 C.3      940 DG      0.0000
    199 C1'        0.7381    -5.1570  3084.7958 C.3      940 DG      0.0000
    200 N9         1.4658    -3.9060  3084.5225 N.ar     940 DG      0.0000
    201 C8         2.8205    -3.7333  3084.3659 C.ar     940 DG      0.0000
    202 N7         3.1762    -2.4952  3084.1474 N.ar     940 DG      0.0000
    203 C5         1.9741    -1.7979  3084.1722 C.ar     940 DG      0.0000
    204 C6         1.6886    -0.4153  3084.0158 C.2      940 DG      0.0000
    205 O6         2.5094     0.4921  3083.8190 O.2      940 DG      0.0000
    206 N1         0.3550    -0.1002  3084.1027 N.am     940 DG      0.0000
    207 C2        -0.6045    -1.0321  3084.3234 C.2      940 DG      0.0000
    208 N2        -1.8533    -0.5784  3084.3867 N.pl3    940 DG      0.0000
    209 N3        -0.3899    -2.3440  3084.4811 N.2      940 DG      0.0000
    210 C4         0.9189    -2.6524  3084.3978 C.ar     940 DG      0.0000
    211 H5'        2.4166    -8.2140  3087.4727 H        940 DG      0.0000
    212 H5''       2.7983    -6.4741  3087.5798 H        940 DG      0.0000
    213 H4'        0.3582    -7.3536  3086.9173 H        940 DG      0.0000
    214 H3'        1.6675    -8.3032  3084.7038 H        940 DG      0.0000
    215 H2'        2.3724    -6.2112  3083.8293 H        940 DG      0.0000
    216 H2''       0.7829    -6.3802  3083.0132 H        940 DG      0.0000
    217 H1'       -0.3246    -5.0274  3084.5906 H        940 DG      0.0000
    218 H8         3.5276    -4.5480  3084.4186 H        940 DG      0.0000
    219 H1         0.0776     0.8652  3083.9979 H        940 DG      0.0000
    220 H21       -2.0387     0.4077  3084.2716 H        940 DG      0.0000
    221 H22       -2.6160    -1.2200  3084.5499 H        940 DG      0.0000
    222 P         -0.8717    -7.8932  3083.0838 P.3      939 DT      0.0000
    223 OP1       -1.8725    -8.9471  3082.6929 O.co2    939 DT      0.0000
    224 OP2        0.4207    -8.0931  3082.3833 O.co2    939 DT      0.0000
    225 O5'       -1.5272    -6.4370  3082.9529 O.3      939 DT      0.0000
    226 C5'       -2.9624    -6.3336  3083.2206 C.3      939 DT      0.0000
    227 C4'       -3.5054    -5.1412  3082.4635 C.3      939 DT      0.0000
    228 O4'       -2.6051    -4.0480  3082.4362 O.3      939 DT      0.0000
    229 C3'       -3.8218    -5.4523  3081.0088 C.3      939 DT      0.0000
    230 O3'       -5.0124    -4.8020  3080.5137 O.3      939 DT      0.0000
    231 C2'       -2.5798    -4.9800  3080.2859 C.3      939 DT      0.0000
    232 C1'       -2.3110    -3.7026  3081.0640 C.3      939 DT      0.0000
    233 N1        -0.8774    -3.4081  3080.9127 N.am     939 DT      0.0000
    234 C2        -0.5101    -2.0706  3081.0195 C.2      939 DT      0.0000
    235 O2        -1.3591    -1.2061  3081.2093 O.2      939 DT      0.0000
    236 N3         0.8194    -1.7769  3080.8993 N.am     939 DT      0.0000
    237 C4         1.7545    -2.7440  3080.6818 C.2      939 DT      0.0000
    238 O4         2.9710    -2.3731  3080.5842 O.2      939 DT      0.0000
    239 C5         1.3481    -4.1048  3080.5754 C.2      939 DT      0.0000
    240 C7         2.3712    -5.1800  3080.3464 C.3      939 DT      0.0000
    241 C6         0.0481    -4.3858  3080.6972 C.2      939 DT      0.0000
    242 H5'       -3.4652    -7.2413  3082.8868 H        939 DT      0.0000
    243 H5''      -3.1269    -6.1953  3084.2892 H        939 DT      0.0000
    244 H4'       -4.4241    -4.8157  3082.9515 H        939 DT      0.0000
    245 H3'       -3.9225    -6.5305  3080.8848 H        939 DT      0.0000
    246 H2'       -1.7600    -5.6925  3080.3775 H        939 DT      0.0000
    247 H2''      -2.7947    -4.7630  3079.2395 H        939 DT      0.0000
    248 H1'       -2.9318    -2.8781  3080.7134 H        939 DT      0.0000
    249 H3         1.1176    -0.8148  3080.9740 H        939 DT      0.0000
    250 H6        -0.2779    -5.4127  3080.6230 H        939 DT      0.0000
    251 H71        3.3620    -4.7308  3080.2777 H        939 DT      0.0000
    252 H72        2.3491    -5.8851  3081.1773 H        939 DT      0.0000
    253 H73        2.1452    -5.7050  3079.4183 H        939 DT      0.0000
    254 P         -5.9129    -5.9586  3079.7353 P.3      938 DG      0.0000
    255 OP1       -6.9494    -6.5900  3080.6065 O.co2    938 DG      0.0000
    256 OP2       -4.8066    -6.8612  3079.3297 O.co2    938 DG      0.0000
    257 O5'       -6.6714    -5.0580  3078.6545 O.3      938 DG      0.0000
    258 C5'       -7.8129    -4.2701  3079.0780 C.3      938 DG      0.0000
    259 C4'       -7.4930    -2.8494  3078.6302 C.3      938 DG      0.0000
    260 O4'       -6.1360    -2.5602  3078.9009 O.3      938 DG      0.0000
    261 C3'       -7.7292    -2.5890  3077.1425 C.3      938 DG      0.0000
    262 O3'       -8.6167    -1.5050  3076.9340 O.3      938 DG      0.0000
    263 C2'       -6.3356    -2.4135  3076.5658 C.3      938 DG      0.0000
    264 C1'       -5.5440    -1.9156  3077.7519 C.3      938 DG      0.0000
    265 N9        -4.1302    -2.2808  3077.6284 N.ar     938 DG      0.0000
    266 C8        -3.5860    -3.5237  3077.4695 C.ar     938 DG      0.0000
    267 N7        -2.2776    -3.5208  3077.3914 N.ar     938 DG      0.0000
    268 C5        -1.9336    -2.1792  3077.5289 C.ar     938 DG      0.0000
    269 C6        -0.6761    -1.5200  3077.5384 C.2      938 DG      0.0000
    270 O6         0.4320    -2.0371  3077.4394 O.2      938 DG      0.0000
    271 N1        -0.7463    -0.1640  3077.6874 N.am     938 DG      0.0000
    272 C2        -1.9446     0.4949  3077.8203 C.2      938 DG      0.0000
    273 N2        -1.8691     1.8191  3077.9559 N.pl3    938 DG      0.0000
    274 N3        -3.1594    -0.0634  3077.8246 N.2      938 DG      0.0000
    275 C4        -3.0738    -1.4071  3077.6739 C.ar     938 DG      0.0000
    276 H5'       -8.7246    -4.6272  3078.5992 H        938 DG      0.0000
    277 H5''      -7.9164    -4.3092  3080.1623 H        938 DG      0.0000
    278 H4'       -8.1129    -2.1600  3079.2032 H        938 DG      0.0000
    279 H3'       -8.1715    -3.4834  3076.7039 H        938 DG      0.0000
    280 H2'       -5.9401    -3.3608  3076.1994 H        938 DG      0.0000
    281 H2''      -6.3420    -1.6683  3075.7702 H        938 DG      0.0000
    282 H1'       -5.6435    -0.8337  3077.8390 H        938 DG      0.0000
    283 H8        -4.1787    -4.4248  3077.4134 H        938 DG      0.0000
    284 H1         0.1100     0.3714  3077.7002 H        938 DG      0.0000
    285 H21       -0.9685     2.2762  3077.9569 H        938 DG      0.0000
    286 H22       -2.7126     2.3652  3078.0577 H        938 DG      0.0000
    287 P         -8.5849    -0.1838  3076.0677 P.3      937 DA      0.0000
    288 OP1       -9.2166     0.9753  3076.8490 O.co2    937 DA      0.0000
    289 OP2       -9.3783    -0.4892  3074.8750 O.co2    937 DA      0.0000
    290 O5'       -7.0132     0.2078  3075.8929 O.3      937 DA      0.0000
    291 C5'       -6.5130     0.9784  3077.0493 C.3      937 DA      0.0000
    292 C4'       -6.1074     2.3323  3076.5215 C.3      937 DA      0.0000
    293 O4'       -4.7235     2.4301  3076.2993 O.3      937 DA      0.0000
    294 C3'       -6.7594     2.6689  3075.1810 C.3      937 DA      0.0000
    295 O3'       -7.1793     4.0103  3075.1058 O.3      937 DA      0.0000
    296 C2'       -5.7148     2.1993  3074.1845 C.3      937 DA      0.0000
    297 C1'       -4.3975     2.2166  3074.9083 C.3      937 DA      0.0000
    298 N9        -3.6367     0.9757  3074.6828 N.ar     937 DA      0.0000
    299 C8        -4.1064    -0.3064  3074.4964 C.ar     937 DA      0.0000
    300 N7        -3.1679    -1.2038  3074.3005 N.ar     937 DA      0.0000
    301 C5        -1.9962    -0.4625  3074.3874 C.ar     937 DA      0.0000
    302 C6        -0.6380    -0.8434  3074.2818 C.ar     937 DA      0.0000
    303 N6        -0.2366    -2.0842  3074.0693 N.pl3    937 DA      0.0000
    304 N1         0.2760     0.1583  3074.4055 N.ar     937 DA      0.0000
    305 C2        -0.1099     1.4491  3074.6300 C.ar     937 DA      0.0000
    306 N3        -1.3670     1.8722  3074.7459 N.ar     937 DA      0.0000
    307 C4        -2.2662     0.8677  3074.6098 C.ar     937 DA      0.0000
    308 H5'       -7.2984     1.0863  3077.7974 H        937 DA      0.0000
    309 H5''      -5.6500     0.4758  3077.4860 H        937 DA      0.0000
    310 H4'       -6.3972     3.0903  3077.2492 H        937 DA      0.0000
    311 H3'       -7.6392     2.0355  3075.0679 H        937 DA      0.0000
    312 H2'       -5.6825     2.8721  3073.3276 H        937 DA      0.0000
    313 H2''      -5.9446     1.1864  3073.8539 H        937 DA      0.0000
    314 H1'       -3.8091     3.0613  3074.5501 H        937 DA      0.0000
    315 H8        -5.1579    -0.5525  3074.5103 H        937 DA      0.0000
    316 H2         0.6710     2.1895  3074.7213 H        937 DA      0.0000
    317 H61        0.6690    -2.4016  3074.3847 H        937 DA      0.0000
    318 H62       -0.8458    -2.7265  3073.5831 H        937 DA      0.0000
    319 P         -7.1357     5.0551  3073.9212 P.3      936 DA      0.0000
    320 OP1       -7.4754     6.4825  3074.4412 O.co2    936 DA      0.0000
    321 OP2       -8.2159     4.6080  3072.9876 O.co2    936 DA      0.0000
    322 O5'       -5.6447     5.1348  3073.4186 O.3      936 DA      0.0000
    323 C5'       -4.7866     6.2011  3073.8744 C.3      936 DA      0.0000
    324 C4'       -3.4572     6.0288  3073.1725 C.3      936 DA      0.0000
    325 O4'       -3.0380     4.6994  3073.0517 O.3      936 DA      0.0000
    326 C3'       -3.4299     6.6230  3071.7649 C.3      936 DA      0.0000
    327 O3'       -2.5202     7.7390  3071.7335 O.3      936 DA      0.0000
    328 C2'       -3.1374     5.4207  3070.8654 C.3      936 DA      0.0000
    329 C1'       -2.3681     4.4998  3071.7632 C.3      936 DA      0.0000
    330 N9        -2.4567     3.0744  3071.4636 N.ar     936 DA      0.0000
    331 C8        -3.5754     2.2910  3071.2688 C.ar     936 DA      0.0000
    332 N7        -3.3045     1.0214  3071.0634 N.ar     936 DA      0.0000
    333 C5        -1.9269     0.9535  3071.1379 C.ar     936 DA      0.0000
    334 C6        -1.0269    -0.1275  3071.0044 C.ar     936 DA      0.0000
    335 N6        -1.4039    -1.3791  3070.7612 N.pl3    936 DA      0.0000
    336 N1         0.2984     0.1940  3071.1533 N.ar     936 DA      0.0000
    337 C2         0.7096     1.4515  3071.4058 C.ar     936 DA      0.0000
    338 N3        -0.0810     2.5200  3071.5447 N.ar     936 DA      0.0000
    339 C4        -1.3860     2.2001  3071.3974 C.ar     936 DA      0.0000
    340 H5'       -5.2221     7.1671  3073.6193 H        936 DA      0.0000
    341 H5''      -4.6481     6.1301  3074.9532 H        936 DA      0.0000
    342 H4'       -2.7067     6.5547  3073.7626 H        936 DA      0.0000
    343 H3'       -4.4289     6.9902  3071.5299 H        936 DA      0.0000
    344 H2'       -4.0615     4.9532  3070.5255 H        936 DA      0.0000
    345 H2''      -2.5267     5.7213  3070.0141 H        936 DA      0.0000
    346 H1'       -1.3254     4.8114  3071.8243 H        936 DA      0.0000
    347 H8        -4.5811     2.6846  3071.2838 H        936 DA      0.0000
    348 H2         1.7732     1.6105  3071.5049 H        936 DA      0.0000
    349 H61       -0.7509    -2.0913  3071.0553 H        936 DA      0.0000
    350 H62       -2.2816    -1.6020  3070.3140 H        936 DA      0.0000
    351 P         -2.3053     8.5312  3070.3485 P.3      935 DT      0.0000
    352 OP1       -1.6162     9.8598  3070.4067 O.co2    935 DT      0.0000
    353 OP2       -3.7093     8.5594  3069.8359 O.co2    935 DT      0.0000
    354 O5'       -1.2246     7.4750  3069.6454 O.3      935 DT      0.0000
    355 C5'       -0.2705     7.0328  3070.6577 C.3      935 DT      0.0000
    356 C4'        0.9711     6.5555  3069.9748 C.3      935 DT      0.0000
    357 O4'        1.0122     5.1715  3069.7943 O.3      935 DT      0.0000
    358 C3'        1.2152     7.1883  3068.6135 C.3      935 DT      0.0000
    359 O3'        2.6016     7.4328  3068.3462 O.3      935 DT      0.0000
    360 C2'        0.5554     6.1298  3067.7202 C.3      935 DT      0.0000
    361 C1'        1.0370     4.8453  3068.3602 C.3      935 DT      0.0000
    362 N1         0.0842     3.7430  3068.1302 N.am     935 DT      0.0000
    363 C2         0.6021     2.4656  3068.0086 C.2      935 DT      0.0000
    364 O2         1.8171     2.2646  3068.0454 O.2      935 DT      0.0000
    365 N3        -0.2765     1.4298  3067.8412 N.am     935 DT      0.0000
    366 C4        -1.6212     1.6280  3067.7927 C.2      935 DT      0.0000
    367 O4        -2.3586     0.6142  3067.6071 O.2      935 DT      0.0000
    368 C5        -2.1343     2.9470  3067.9411 C.2      935 DT      0.0000
    369 C7        -3.6213     3.2050  3067.8890 C.3      935 DT      0.0000
    370 C6        -1.2635     3.9469  3068.1140 C.2      935 DT      0.0000
    371 H5'       -0.0277     7.8640  3071.3198 H        935 DT      0.0000
    372 H5''      -0.7045     6.2184  3071.2377 H        935 DT      0.0000
    373 H4'        1.8140     6.8237  3070.6118 H        935 DT      0.0000
    374 H3'        0.6598     8.1234  3068.5415 H        935 DT      0.0000
    375 H2'       -0.5315     6.2057  3067.7507 H        935 DT      0.0000
    376 H2''       0.9185     6.2096  3066.6956 H        935 DT      0.0000
    377 H1'        2.0410     4.5833  3068.0262 H        935 DT      0.0000
    378 H3         0.0842     0.4907  3067.7510 H        935 DT      0.0000
    379 H6        -1.6409     4.9503  3068.2454 H        935 DT      0.0000
    380 H71       -3.9009     3.5204  3066.8838 H        935 DT      0.0000
    381 H72       -3.8788     3.9895  3068.6005 H        935 DT      0.0000
    382 H73       -4.1578     2.2915  3068.1455 H        935 DT      0.0000
    383 P         -8.3786     5.4937  3088.0679 P.3      941 DG      0.0000
    384 OP1       -9.0833     6.7994  3088.0664 O.co2    941 DG      0.0000
    385 OP2       -7.2676     5.5910  3089.1236 O.co2    941 DG      0.0000
    386 O5'       -9.2767     4.1924  3088.2463 O.3      941 DG      0.0000
    387 C5'       -9.7206     3.2510  3087.2463 C.3      941 DG      0.0000
    388 C4'       -9.4144     1.8541  3087.7451 C.3      941 DG      0.0000
    389 O4'       -8.1430     1.4077  3087.3260 O.3      941 DG      0.0000
    390 C3'       -9.4913     1.6018  3089.2373 C.3      941 DG      0.0000
    391 O3'      -10.3768     0.4927  3089.5493 O.3      941 DG      0.0000
    392 C2'       -8.0545     1.3597  3089.6592 C.3      941 DG      0.0000
    393 C1'       -7.4000     0.8365  3088.4035 C.3      941 DG      0.0000
    394 N9        -5.9786     1.2262  3088.3745 N.ar     941 DG      0.0000
    395 C8        -5.4065     2.4553  3088.6034 C.ar     941 DG      0.0000
    396 N7        -4.0956     2.4621  3088.5137 N.ar     941 DG      0.0000
    397 C5        -3.7786     1.1438  3088.1966 C.ar     941 DG      0.0000
    398 C6        -2.5371     0.4998  3087.9707 C.2      941 DG      0.0000
    399 O6        -1.4083     0.9914  3087.9920 O.2      941 DG      0.0000
    400 N1        -2.6170    -0.8366  3087.6892 N.am     941 DG      0.0000
    401 C2        -3.7390    -1.4796  3087.6286 C.2      941 DG      0.0000
    402 N2        -3.5357    -2.7042  3087.3318 N.pl3    941 DG      0.0000
    403 N3        -5.0102    -0.9353  3087.8373 N.2      941 DG      0.0000
    404 C4        -4.9238     0.3746  3088.1099 C.ar     941 DG      0.0000
    405 H5'      -10.7936     3.3593  3087.0876 H        941 DG      0.0000
    406 H5''      -9.1909     3.4314  3086.3109 H        941 DG      0.0000
    407 H4'      -10.1447     1.1917  3087.2804 H        941 DG      0.0000
    408 H3'       -9.8600     2.5007  3089.7313 H        941 DG      0.0000
    409 H2'       -7.5835     2.2867  3089.9862 H        941 DG      0.0000
    410 H2''      -8.0114     0.6115  3090.4507 H        941 DG      0.0000
    411 H1'       -7.4834    -0.2499  3088.3716 H        941 DG      0.0000
    412 H8        -5.9839     3.3378  3088.8364 H        941 DG      0.0000
    413 H1        -1.7607    -1.3452  3087.5208 H        941 DG      0.0000
    414 H21       -2.5940    -3.0393  3087.1874 H        941 DG      0.0000
    415 H22       -4.3167    -3.3382  3087.2413 H        941 DG      0.0000
    416 P        -10.4340    -0.1770  3090.9778 P.3      942 DT      0.0000
    417 OP1      -11.8031    -0.5434  3091.4895 O.co2    942 DT      0.0000
    418 OP2       -9.9661     0.9664  3091.8965 O.co2    942 DT      0.0000
    419 O5'       -9.3818    -1.3150  3091.0064 O.3      942 DT      0.0000
    420 C5'       -9.7273    -2.7201  3090.8624 C.3      942 DT      0.0000
    421 C4'       -8.4001    -3.4473  3090.9199 C.3      942 DT      0.0000
    422 O4'       -7.3118    -2.5928  3090.6448 O.3      942 DT      0.0000
    423 C3'       -8.0501    -4.1012  3092.2327 C.3      942 DT      0.0000
    424 O3'       -8.0076    -5.5234  3092.0444 O.3      942 DT      0.0000
    425 C2'       -6.6814    -3.5452  3092.6249 C.3      942 DT      0.0000
    426 C1'       -6.1317    -3.1740  3091.2721 C.3      942 DT      0.0000
    427 N1        -5.1237    -2.1181  3091.3688 N.am     942 DT      0.0000
    428 C2        -3.8171    -2.4740  3091.1708 C.2      942 DT      0.0000
    429 O2        -3.4770    -3.6306  3090.9327 O.2      942 DT      0.0000
    430 N3        -2.8807    -1.4787  3091.2519 N.am     942 DT      0.0000
    431 C4        -3.1986    -0.1895  3091.5078 C.2      942 DT      0.0000
    432 O4        -2.2296     0.6128  3091.5531 O.2      942 DT      0.0000
    433 C5        -4.5716     0.1646  3091.7075 C.2      942 DT      0.0000
    434 C7        -4.9654     1.5785  3091.9874 C.3      942 DT      0.0000
    435 C6        -5.4807    -0.8153  3091.6260 C.2      942 DT      0.0000
    436 H5'      -10.3777    -3.0417  3091.6759 H        942 DT      0.0000
    437 H5''     -10.2112    -2.8933  3089.9012 H        942 DT      0.0000
    438 H4'       -8.4138    -4.2240  3090.1554 H        942 DT      0.0000
    439 H3'       -8.7910    -3.8444  3092.9898 H        942 DT      0.0000
    440 H2'       -6.7730    -2.6740  3093.2737 H        942 DT      0.0000
    441 H2''      -6.0697    -4.3157  3093.0941 H        942 DT      0.0000
    442 H1'       -5.7638    -4.0431  3090.7268 H        942 DT      0.0000
    443 H3        -1.9091    -1.7180  3091.1144 H        942 DT      0.0000
    444 H6        -6.5244    -0.5755  3091.7664 H        942 DT      0.0000
    445 H71       -5.3717     2.0291  3091.0819 H        942 DT      0.0000
    446 H72       -4.0905     2.1416  3092.3122 H        942 DT      0.0000
    447 H73       -5.7212     1.5965  3092.7727 H        942 DT      0.0000
    448 P         -8.5742    -6.3521  3093.3244 P.3      943 DG      0.0000
    449 OP1       -9.2676    -7.5047  3092.6093 O.co2    943 DG      0.0000
    450 OP2       -9.4737    -5.4969  3094.0779 O.co2    943 DG      0.0000
    451 O5'       -7.1086    -6.7329  3093.9339 O.3      943 DG      0.0000
    452 C5'       -6.2351    -7.2134  3092.8433 C.3      943 DG      0.0000
    453 C4'       -4.8279    -7.2337  3093.3634 C.3      943 DG      0.0000
    454 O4'       -4.0763    -6.0634  3093.1828 O.3      943 DG      0.0000
    455 C3'       -4.7590    -7.5780  3094.8714 C.3      943 DG      0.0000
    456 O3'       -3.8614    -8.7033  3095.0303 O.3      943 DG      0.0000
    457 C2'       -4.3334    -6.2801  3095.5240 C.3      943 DG      0.0000
    458 C1'       -3.4550    -5.6621  3094.4424 C.3      943 DG      0.0000
    459 N9        -3.3415    -4.2092  3094.6120 N.ar     943 DG      0.0000
    460 C8        -4.3141    -3.3085  3094.9482 C.ar     943 DG      0.0000
    461 N7        -3.9018    -2.0630  3095.0339 N.ar     943 DG      0.0000
    462 C5        -2.5517    -2.1581  3094.7039 C.ar     943 DG      0.0000
    463 C6        -1.5432    -1.1568  3094.6095 C.2      943 DG      0.0000
    464 O6        -1.6544     0.0631  3094.8019 O.2      943 DG      0.0000
    465 N1        -0.2970    -1.6348  3094.2745 N.am     943 DG      0.0000
    466 C2        -0.0691    -2.9584  3094.0507 C.2      943 DG      0.0000
    467 N2         1.2031    -3.2417  3093.7419 N.pl3    943 DG      0.0000
    468 N3        -0.9767    -3.9294  3094.1218 N.2      943 DG      0.0000
    469 C4        -2.1949    -3.4647  3094.4483 C.ar     943 DG      0.0000
    470 H5'       -6.5345    -8.2175  3092.5428 H        943 DG      0.0000
    471 H5''      -6.3035    -6.5375  3091.9909 H        943 DG      0.0000
    472 H4'       -4.3059    -8.0300  3092.8328 H        943 DG      0.0000
    473 H3'       -5.7522    -7.8536  3095.2262 H        943 DG      0.0000
    474 H2'       -5.1926    -5.6475  3095.7469 H        943 DG      0.0000
    475 H2''      -3.7538    -6.4746  3096.4264 H        943 DG      0.0000
    476 H1'       -2.4600    -6.1031  3094.5014 H        943 DG      0.0000
    477 H8        -5.3391    -3.5972  3095.1288 H        943 DG      0.0000
    478 H1         0.4715    -0.9845  3094.1922 H        943 DG      0.0000
    479 H21        1.8876    -2.5008  3093.6917 H        943 DG      0.0000
    480 H22        1.4778    -4.1964  3093.5592 H        943 DG      0.0000
    481 P         -3.6462    -9.3886  3096.4187 P.3      944 DA      0.0000
    482 OP1       -4.5792   -10.5006  3096.7740 O.co2    944 DA      0.0000
    483 OP2       -4.0206    -8.1512  3097.3144 O.co2    944 DA      0.0000
    484 O5'       -2.0923    -9.5840  3096.6678 O.3      944 DA      0.0000
    485 C5'       -1.0938    -9.6459  3095.6387 C.3      944 DA      0.0000
    486 C4'        0.0275    -8.7357  3096.1131 C.3      944 DA      0.0000
    487 O4'       -0.3656    -7.3831  3096.0227 O.3      944 DA      0.0000
    488 C3'        0.5222    -8.9600  3097.5421 C.3      944 DA      0.0000
    489 O3'        1.9631    -9.0056  3097.5944 O.3      944 DA      0.0000
    490 C2'       -0.0659    -7.7495  3098.2776 C.3      944 DA      0.0000
    491 C1'        0.1283    -6.6936  3097.2000 C.3      944 DA      0.0000
    492 N9        -0.6423    -5.4671  3097.4284 N.ar     944 DA      0.0000
    493 C8        -1.9806    -5.2983  3097.6441 C.ar     944 DA      0.0000
    494 N7        -2.3397    -4.0447  3097.8091 N.ar     944 DA      0.0000
    495 C5        -1.1546    -3.3381  3097.6689 C.ar     944 DA      0.0000
    496 C6        -0.8792    -1.9540  3097.7169 C.ar     944 DA      0.0000
    497 N6        -1.7963    -1.0089  3097.9366 N.pl3    944 DA      0.0000
    498 N1         0.4303    -1.6138  3097.5271 N.ar     944 DA      0.0000
    499 C2         1.3765    -2.5562  3097.3093 C.ar     944 DA      0.0000
    500 N3         1.1912    -3.8744  3097.2511 N.ar     944 DA      0.0000
    501 C4        -0.1031    -4.1910  3097.4379 C.ar     944 DA      0.0000
    502 H5'       -1.4993    -9.2901  3094.6916 H        944 DA      0.0000
    503 H5''      -0.7284   -10.6671  3095.5310 H        944 DA      0.0000
    504 H4'        0.8755    -8.8791  3095.4433 H        944 DA      0.0000
    505 H3'        0.1029    -9.8826  3097.9435 H        944 DA      0.0000
    506 H2'       -1.1181    -7.8930  3098.5230 H        944 DA      0.0000
    507 H2''       0.5154    -7.5119  3099.1685 H        944 DA      0.0000
    508 H1'        1.1868    -6.4597  3097.0854 H        944 DA      0.0000
    509 H8        -2.6802    -6.1205  3097.6762 H        944 DA      0.0000
    510 H2         2.3874    -2.2031  3097.1680 H        944 DA      0.0000
    511 H61       -2.7935    -1.1363  3097.8392 H        944 DA      0.0000
    512 H62       -1.5431    -0.0464  3097.7651 H        944 DA      0.0000
    513 P          2.7744    -9.8642  3098.7358 P.3      945 DA      0.0000
    514 OP1        3.6067   -10.9308  3098.0688 O.co2    945 DA      0.0000
    515 OP2        1.6580   -10.3593  3099.5668 O.co2    945 DA      0.0000
    516 O5'        3.8439    -8.8061  3099.2667 O.3      945 DA      0.0000
    517 C5'        4.8495    -8.2193  3098.4423 C.3      945 DA      0.0000
    518 C4'        5.1316    -6.8215  3098.9647 C.3      945 DA      0.0000
    519 O4'        3.9671    -6.0456  3098.9928 O.3      945 DA      0.0000
    520 C3'        5.7824    -6.7033  3100.3320 C.3      945 DA      0.0000
    521 O3'        7.0757    -6.1043  3100.2541 O.3      945 DA      0.0000
    522 C2'        4.7525    -5.9256  3101.1607 C.3      945 DA      0.0000
    523 C1'        3.9584    -5.1704  3100.1669 C.3      945 DA      0.0000
    524 N9         2.5469    -4.8405  3100.4350 N.ar     945 DA      0.0000
    525 C8         1.4535    -5.6643  3100.5501 C.ar     945 DA      0.0000
    526 N7         0.3181    -5.0290  3100.7194 N.ar     945 DA      0.0000
    527 C5         0.6808    -3.6864  3100.6824 C.ar     945 DA      0.0000
    528 C6        -0.0876    -2.4935  3100.8029 C.ar     945 DA      0.0000
    529 N6        -1.3997    -2.4385  3100.9945 N.pl3    945 DA      0.0000
    530 N1         0.6188    -1.3209  3100.7047 N.ar     945 DA      0.0000
    531 C2         1.9702    -1.3375  3100.5156 C.ar     945 DA      0.0000
    532 N3         2.7454    -2.4105  3100.4078 N.ar     945 DA      0.0000
    533 C4         2.0379    -3.5544  3100.4996 C.ar     945 DA      0.0000
    534 H5'        4.4972    -8.1645  3097.4123 H        945 DA      0.0000
    535 H5''       5.7585    -8.8191  3098.4883 H        945 DA      0.0000
    536 H4'        5.8077    -6.3493  3098.2519 H        945 DA      0.0000
    537 H3'        5.8865    -7.7023  3100.7552 H        945 DA      0.0000
    538 H2'        4.1153    -6.6098  3101.7210 H        945 DA      0.0000
    539 H2''       5.2570    -5.2388  3101.8403 H        945 DA      0.0000
    540 H1'        4.4906    -4.2516  3099.9208 H        945 DA      0.0000
    541 H8         1.5226    -6.7411  3100.5053 H        945 DA      0.0000
    542 H2         2.4606    -0.3777  3100.4465 H        945 DA      0.0000
    543 H61       -1.9305    -3.2335  3101.3207 H        945 DA      0.0000
    544 H62       -1.8840    -1.5721  3100.8077 H        945 DA      0.0000
    545 P          8.3417    -6.4611  3101.2104 P.3      946 DT      0.0000
    546 OP1        9.6382    -6.5464  3100.4130 O.co2    946 DT      0.0000
    547 OP2        8.0527    -7.6184  3102.0310 O.co2    946 DT      0.0000
    548 O5'        8.5485    -5.0468  3102.0241 O.3      946 DT      0.0000
    549 C5'        8.3546    -3.9093  3101.0790 C.3      946 DT      0.0000
    550 C4'        7.5562    -2.9019  3101.8667 C.3      946 DT      0.0000
    551 O4'        6.2092    -3.2719  3102.0587 O.3      946 DT      0.0000
    552 C3'        8.1217    -2.6903  3103.2833 C.3      946 DT      0.0000
    553 O3'        8.9371    -1.5332  3103.2849 O.3      946 DT      0.0000
    554 C2'        6.8892    -2.6084  3104.1805 C.3      946 DT      0.0000
    555 C1'        5.7862    -2.4270  3103.2159 C.3      946 DT      0.0000
    556 N1         4.4319    -2.8338  3103.5557 N.am     946 DT      0.0000
    557 C2         3.4875    -1.8214  3103.6936 C.2      946 DT      0.0000
    558 O2         3.8333    -0.6502  3103.6056 O.2      946 DT      0.0000
    559 N3         2.1968    -2.1749  3103.9476 N.am     946 DT      0.0000
    560 C4         1.7981    -3.4755  3104.0677 C.2      946 DT      0.0000
    561 O4         0.5766    -3.7237  3104.3229 O.2      946 DT      0.0000
    562 C5         2.7843    -4.5021  3103.8962 C.2      946 DT      0.0000
    563 C7         2.3936    -5.9514  3103.9837 C.3      946 DT      0.0000
    564 C6         4.0555    -4.1480  3103.6404 C.2      946 DT      0.0000
    565 H5'        9.3145    -3.4902  3100.7773 H        946 DT      0.0000
    566 H5''       7.7929    -4.2363  3100.2040 H        946 DT      0.0000
    567 H4'        7.5818    -1.9492  3101.3376 H        946 DT      0.0000
    568 H3'        8.7201    -3.5559  3103.5676 H        946 DT      0.0000
    569 H2'        6.7608    -3.5264  3104.7539 H        946 DT      0.0000
    570 H2''       6.9587    -1.7487  3104.8469 H        946 DT      0.0000
    571 H1'        5.7680    -1.3844  3102.8986 H        946 DT      0.0000
    572 H3         1.5062    -1.4452  3104.0513 H        946 DT      0.0000
    573 H6         4.7985    -4.9189  3103.4983 H        946 DT      0.0000
    574 H71        1.3274    -6.0286  3104.1967 H        946 DT      0.0000
    575 H72        2.6110    -6.4439  3103.0359 H        946 DT      0.0000
    576 H73        2.9593    -6.4327  3104.7815 H        946 DT      0.0000
    577 P          9.8930    -1.0124  3104.3916 P.3      947 DT      0.0000
    578 OP1       10.9714    -0.0813  3103.7795 O.co2    947 DT      0.0000
    579 OP2       10.4959    -2.2152  3105.0215 O.co2    947 DT      0.0000
    580 O5'        8.9865    -0.0266  3105.2739 O.3      947 DT      0.0000
    581 C5'        8.6385     1.1912  3104.5621 C.3      947 DT      0.0000
    582 C4'        7.4713     1.8225  3105.2383 C.3      947 DT      0.0000
    583 O4'        6.2937     1.0254  3105.2150 O.3      947 DT      0.0000
    584 C3'        7.7182     2.2042  3106.7049 C.3      947 DT      0.0000
    585 O3'        7.1967     3.4928  3106.9690 O.3      947 DT      0.0000
    586 C2'        6.8741     1.1368  3107.4413 C.3      947 DT      0.0000
    587 C1'        5.6589     1.1867  3106.5377 C.3      947 DT      0.0000
    588 N1         4.7417     0.1022  3106.8354 N.am     947 DT      0.0000
    589 C2         3.3855     0.3800  3106.8902 C.2      947 DT      0.0000
    590 O2         3.0057     1.5366  3106.7018 O.2      947 DT      0.0000
    591 N3         2.5255    -0.6481  3107.1561 N.am     947 DT      0.0000
    592 C4         2.9590    -1.9216  3107.3631 C.2      947 DT      0.0000
    593 O4         2.1030    -2.8248  3107.5864 O.2      947 DT      0.0000
    594 C5         4.3561    -2.1966  3107.2981 C.2      947 DT      0.0000
    595 C7         4.9112    -3.5752  3107.5080 C.3      947 DT      0.0000
    596 C6         5.1866    -1.1751  3107.0369 C.2      947 DT      0.0000
    597 H5'        9.4849     1.8778  3104.5746 H        947 DT      0.0000
    598 H5''       8.3779     0.9506  3103.5314 H        947 DT      0.0000
    599 H4'        7.2471     2.7433  3104.6998 H        947 DT      0.0000
    600 H3'        8.7739     2.1349  3106.9674 H        947 DT      0.0000
    601 H2'        7.3518     0.1571  3107.4400 H        947 DT      0.0000
    602 H2''       6.6280     1.4561  3108.4540 H        947 DT      0.0000
    603 H1'        5.1576     2.1516  3106.6133 H        947 DT      0.0000
    604 H3         1.5348    -0.4565  3107.2005 H        947 DT      0.0000
    605 H6         6.2476    -1.3695  3106.9839 H        947 DT      0.0000
    606 H71        4.0950    -4.2697  3107.7069 H        947 DT      0.0000
    607 H72        5.4466    -3.8911  3106.6127 H        947 DT      0.0000
    608 H73        5.5954    -3.5661  3108.3564 H        947 DT      0.0000
    609 P          7.7397     4.8339  3107.5769 P.3      948 DC      0.0000
    610 OP1        7.9081     5.8975  3106.5090 O.co2    948 DC      0.0000
    611 OP2        8.9624     4.4620  3108.3119 O.co2    948 DC      0.0000
    612 O5'        6.3872     5.2194  3108.4029 O.3      948 DC      0.0000
    613 C5'        5.3265     5.1472  3107.3807 C.3      948 DC      0.0000
    614 C4'        4.0240     5.4209  3108.0772 C.3      948 DC      0.0000
    615 O4'        3.2929     4.2600  3108.3241 O.3      948 DC      0.0000
    616 C3'        4.1367     6.2232  3109.3686 C.3      948 DC      0.0000
    617 O3'        3.3430     7.3997  3109.2890 O.3      948 DC      0.0000
    618 C2'        3.7693     5.1712  3110.4174 C.3      948 DC      0.0000
    619 C1'        2.8457     4.2521  3109.7210 C.3      948 DC      0.0000
    620 N1         2.9449     2.8274  3110.0531 N.am     948 DC      0.0000
    621 C2         1.7397     2.1770  3110.3089 C.2      948 DC      0.0000
    622 O2         0.6673     2.7891  3110.3134 O.2      948 DC      0.0000
    623 N3         1.7922     0.8325  3110.5827 N.2      948 DC      0.0000
    624 C4         2.9726     0.1493  3110.5728 C.2      948 DC      0.0000
    625 N4         2.9198    -1.1490  3110.8497 N.pl3    948 DC      0.0000
    626 C5         4.1846     0.8187  3110.2948 C.2      948 DC      0.0000
    627 C6         4.1166     2.1396  3110.0300 C.2      948 DC      0.0000
    628 H5'        5.5012     5.8949  3106.6070 H        948 DC      0.0000
    629 H5''       5.3071     4.1521  3106.9365 H        948 DC      0.0000
    630 H4'        3.4271     6.0220  3107.3912 H        948 DC      0.0000
    631 H3'        5.1779     6.5120  3109.5119 H        948 DC      0.0000
    632 H2'        4.6585     4.6389  3110.7553 H        948 DC      0.0000
    633 H2''       3.2671     5.6412  3111.2629 H        948 DC      0.0000
    634 H1'        1.8159     4.5999  3109.8019 H        948 DC      0.0000
    635 H5         5.1285     0.2939  3110.2942 H        948 DC      0.0000
    636 H6         5.0266     2.6699  3109.7910 H        948 DC      0.0000
    637 H41        2.0319    -1.5872  3111.0489 H        948 DC      0.0000
    638 H42        3.7676    -1.6977  3110.8610 H        948 DC      0.0000
    639 P          3.4653     8.7082  3110.2410 P.3      949 DA      0.0000
    640 OP1        2.9320     9.8853  3109.4473 O.co2    949 DA      0.0000
    641 OP2        4.8907     8.8835  3110.5865 O.co2    949 DA      0.0000
    642 O5'        2.5199     8.3448  3111.5380 O.3      949 DA      0.0000
    643 C5'        1.1527     7.9243  3111.2428 C.3      949 DA      0.0000
    644 C4'        0.4448     7.5321  3112.4981 C.3      949 DA      0.0000
    645 O4'        0.3737     6.1238  3112.7402 O.3      949 DA      0.0000
    646 C3'        1.0680     8.0545  3113.8033 C.3      949 DA      0.0000
    647 O3'        0.0782     8.0027  3114.8332 O.3      949 DA      0.0000
    648 C2'        2.1428     6.9701  3114.0179 C.3      949 DA      0.0000
    649 C1'        1.2139     5.7652  3113.8346 C.3      949 DA      0.0000
    650 N9         2.0128     4.5550  3113.7403 N.ar     949 DA      0.0000
    651 C8         3.3649     4.3873  3113.6245 C.ar     949 DA      0.0000
    652 N7         3.7717     3.1306  3113.6059 N.ar     949 DA      0.0000
    653 C5         2.5883     2.4137  3113.7134 C.ar     949 DA      0.0000
    654 C6         2.3211     1.0229  3113.7479 C.ar     949 DA      0.0000
    655 N6         3.2429     0.0806  3113.6627 N.pl3    949 DA      0.0000
    656 N1         1.0098     0.6656  3113.8805 N.ar     949 DA      0.0000
    657 C2         0.0210     1.6098  3113.9607 C.ar     949 DA      0.0000
    658 N3         0.1925     2.9293  3113.9308 N.ar     949 DA      0.0000
    659 C4         1.5000     3.2657  3113.8078 C.ar     949 DA      0.0000
    660 H5'        0.6175     8.7487  3110.7716 H        949 DA      0.0000
    661 H5''       1.1764     7.0737  3110.5615 H        949 DA      0.0000
    662 H4'       -0.5749     7.9127  3112.4392 H        949 DA      0.0000
    663 H3'        1.4982     9.0496  3113.6896 H        949 DA      0.0000
    664 H2'        2.9320     7.0084  3113.2671 H        949 DA      0.0000
    665 H2''       2.5513     7.0083  3115.0278 H        949 DA      0.0000
    666 H1'        0.5893     5.6855  3114.7243 H        949 DA      0.0000
    667 H8         4.0492     5.2199  3113.5535 H        949 DA      0.0000
    668 H2        -0.9927     1.2499  3114.0571 H        949 DA      0.0000
    669 H61        3.2519    -0.9131  3113.8427 H        949 DA      0.0000
    670 H62        4.1361     0.4316  3113.3479 H        949 DA      0.0000
    671 P         -1.0396     9.1390  3114.9737 P.3      950 DC      0.0000
    672 OP1       -1.2263     9.9365  3113.7286 O.co2    950 DC      0.0000
    673 OP2       -0.5157     9.9597  3116.1166 O.co2    950 DC      0.0000
    674 O5'       -2.3641     8.3143  3115.2569 O.3      950 DC      0.0000
    675 C5'       -3.1255     7.7077  3114.1691 C.3      950 DC      0.0000
    676 C4'       -3.7636     6.5054  3114.8741 C.3      950 DC      0.0000
    677 O4'       -2.7278     5.6029  3115.1861 O.3      950 DC      0.0000
    678 C3'       -4.4627     6.8596  3116.1840 C.3      950 DC      0.0000
    679 O3'       -5.8174     6.3598  3116.2519 O.3      950 DC      0.0000
    680 C2'       -3.5438     6.2728  3117.2662 C.3      950 DC      0.0000
    681 C1'       -2.9634     5.0976  3116.5900 C.3      950 DC      0.0000
    682 N1        -1.6394     4.5914  3116.9428 N.am     950 DC      0.0000
    683 C2        -1.5094     3.2041  3116.9160 C.2      950 DC      0.0000
    684 O2        -2.4557     2.4549  3116.7090 O.2      950 DC      0.0000
    685 N3        -0.2771     2.6871  3117.1691 N.2      950 DC      0.0000
    686 C4         0.8056     3.4675  3117.4024 C.2      950 DC      0.0000
    687 N4         1.9596     2.8442  3117.6334 N.pl3    950 DC      0.0000
    688 C5         0.6630     4.8824  3117.4090 C.2      950 DC      0.0000
    689 C6        -0.5560     5.3854  3117.1596 C.2      950 DC      0.0000
    690 H5'       -3.8825     8.3910  3113.7843 H        950 DC      0.0000
    691 H5''      -2.4612     7.3784  3113.3701 H        950 DC      0.0000
    692 H4'       -4.4739     6.0248  3114.2014 H        950 DC      0.0000
    693 H3'       -4.4824     7.9443  3116.2899 H        950 DC      0.0000
    694 H2'       -2.7694     6.9842  3117.5532 H        950 DC      0.0000
    695 H2''      -4.1241     5.9663  3118.1365 H        950 DC      0.0000
    696 H1'       -3.6845     4.2803  3116.5768 H        950 DC      0.0000
    697 H5         1.5051     5.5287  3117.6075 H        950 DC      0.0000
    698 H6        -0.6813     6.4577  3117.1298 H        950 DC      0.0000
    699 H41        1.9994     1.8351  3117.6223 H        950 DC      0.0000
    700 H42        2.7949     3.3806  3117.8195 H        950 DC      0.0000
    701 P          4.6555    -7.0974  3119.2114 P.3      950 DG      0.0000
    702 OP1        5.5250    -8.3011  3119.3902 O.co2    950 DG      0.0000
    703 OP2        5.1583    -6.1541  3118.1266 O.co2    950 DG      0.0000
    704 O5'        3.0948    -7.5776  3119.0042 O.3      950 DG      0.0000
    705 C5'        2.1386    -7.3908  3120.0999 C.3      950 DG      0.0000
    706 C4'        0.8090    -6.9890  3119.4657 C.3      950 DG      0.0000
    707 O4'        0.6721    -5.5975  3119.3698 O.3      950 DG      0.0000
    708 C3'        0.5881    -7.5397  3118.0593 C.3      950 DG      0.0000
    709 O3'       -0.7669    -7.9697  3117.7923 O.3      950 DG      0.0000
    710 C2'        0.9937    -6.3603  3117.1570 C.3      950 DG      0.0000
    711 C1'        0.4912    -5.1864  3117.9809 C.3      950 DG      0.0000
    712 N9         1.2778    -3.9715  3117.7076 N.ar     950 DG      0.0000
    713 C8         2.6392    -3.8636  3117.5509 C.ar     950 DG      0.0000
    714 N7         3.0536    -2.6439  3117.3325 N.ar     950 DG      0.0000
    715 C5         1.8861    -1.8901  3117.3573 C.ar     950 DG      0.0000
    716 C6         1.6669    -0.4954  3117.2008 C.2      950 DG      0.0000
    717 O6         2.5300     0.3718  3117.0040 O.2      950 DG      0.0000
    718 N1         0.3498    -0.1171  3117.2877 N.am     950 DG      0.0000
    719 C2        -0.6530    -1.0021  3117.5084 C.2      950 DG      0.0000
    720 N2        -1.8788    -0.4893  3117.5717 N.pl3    950 DG      0.0000
    721 N3        -0.5013    -2.3227  3117.6661 N.2      950 DG      0.0000
    722 C4         0.7913    -2.6933  3117.5828 C.ar     950 DG      0.0000
    723 H5'        2.0220    -8.3200  3120.6577 H        950 DG      0.0000
    724 H5''       2.4863    -6.6002  3120.7649 H        950 DG      0.0000
    725 H4'        0.0069    -7.3623  3120.1024 H        950 DG      0.0000
    726 H3'        1.2695    -8.3733  3117.8888 H        950 DG      0.0000
    727 H2'        2.0734    -6.3173  3117.0144 H        950 DG      0.0000
    728 H2''       0.4776    -6.4103  3116.1983 H        950 DG      0.0000
    729 H1'       -0.5641    -5.0062  3117.7756 H        950 DG      0.0000
    730 H8         3.3066    -4.7111  3117.6036 H        950 DG      0.0000
    731 H1         0.1188     0.8605  3117.1829 H        950 DG      0.0000
    732 H21       -2.0170     0.5046  3117.4567 H        950 DG      0.0000
    733 H22       -2.6713    -1.0938  3117.7349 H        950 DG      0.0000
    734 P         -1.2473    -7.8426  3116.2688 P.3      949 DT      0.0000
    735 OP1       -2.2972    -8.8475  3115.8779 O.co2    949 DT      0.0000
    736 OP2        0.0341    -8.1040  3115.5683 O.co2    949 DT      0.0000
    737 O5'       -1.8326    -6.3568  3116.1379 O.3      949 DT      0.0000
    738 C5'       -3.2612    -6.1851  3116.4056 C.3      949 DT      0.0000
    739 C4'       -3.7467    -4.9681  3115.6485 C.3      949 DT      0.0000
    740 O4'       -2.7952    -3.9191  3115.6212 O.3      949 DT      0.0000
    741 C3'       -4.0776    -5.2637  3114.1938 C.3      949 DT      0.0000
    742 O3'       -5.2358    -4.5574  3113.6987 O.3      949 DT      0.0000
    743 C2'       -2.8145    -4.8513  3113.4710 C.3      949 DT      0.0000
    744 C1'       -2.4850    -3.5881  3114.2491 C.3      949 DT      0.0000
    745 N1        -1.0390    -3.3624  3114.0978 N.am     949 DT      0.0000
    746 C2        -0.6083    -2.0439  3114.2046 C.2      949 DT      0.0000
    747 O2        -1.4151    -1.1399  3114.3943 O.2      949 DT      0.0000
    748 N3         0.7337    -1.8140  3114.0844 N.am     949 DT      0.0000
    749 C4         1.6216    -2.8246  3113.8668 C.2      949 DT      0.0000
    750 O4         2.8543    -2.5121  3113.7692 O.2      949 DT      0.0000
    751 C5         1.1507    -4.1644  3113.7604 C.2      949 DT      0.0000
    752 C7         2.1214    -5.2873  3113.5315 C.3      949 DT      0.0000
    753 C6        -0.1612    -4.3831  3113.8822 C.2      949 DT      0.0000
    754 H5'       -3.8067    -7.0678  3116.0719 H        949 DT      0.0000
    755 H5''      -3.4190    -6.0390  3117.4742 H        949 DT      0.0000
    756 H4'       -4.6488    -4.5991  3116.1365 H        949 DT      0.0000
    757 H3'       -4.2296    -6.3359  3114.0698 H        949 DT      0.0000
    758 H2'       -2.0296    -5.6020  3113.5625 H        949 DT      0.0000
    759 H2''      -3.0188    -4.6242  3112.4246 H        949 DT      0.0000
    760 H1'       -3.0658    -2.7349  3113.8984 H        949 DT      0.0000
    761 H3         1.0775    -0.8672  3114.1591 H        949 DT      0.0000
    762 H6        -0.5358    -5.3933  3113.8080 H        949 DT      0.0000
    763 H71        3.1324    -4.8859  3113.4628 H        949 DT      0.0000
    764 H72        2.0656    -5.9905  3114.3624 H        949 DT      0.0000
    765 H73        1.8705    -5.8009  3112.6033 H        949 DT      0.0000
    766 P         -6.1904    -5.6697  3112.9203 P.3      948 DG      0.0000
    767 OP1       -7.2559    -6.2510  3113.7916 O.co2    948 DG      0.0000
    768 OP2       -5.1284    -6.6240  3112.5148 O.co2    948 DG      0.0000
    769 O5'       -6.9051    -4.7339  3111.8395 O.3      948 DG      0.0000
    770 C5'       -8.0077    -3.8925  3112.2630 C.3      948 DG      0.0000
    771 C4'       -7.6204    -2.4887  3111.8153 C.3      948 DG      0.0000
    772 O4'       -6.2512    -2.2646  3112.0860 O.3      948 DG      0.0000
    773 C3'       -7.8439    -2.2173  3110.3275 C.3      948 DG      0.0000
    774 O3'       -8.6787    -1.0922  3110.1190 O.3      948 DG      0.0000
    775 C2'       -6.4436    -2.1085  3109.7508 C.3      948 DG      0.0000
    776 C1'       -5.6291    -1.6489  3110.9370 C.3      948 DG      0.0000
    777 N9        -4.2343    -2.0811  3110.8134 N.ar     948 DG      0.0000
    778 C8        -3.7501    -3.3486  3110.6545 C.ar     948 DG      0.0000
    779 N7        -2.4430    -3.4082  3110.5765 N.ar     948 DG      0.0000
    780 C5        -2.0354    -2.0845  3110.7140 C.ar     948 DG      0.0000
    781 C6        -0.7479    -1.4860  3110.7235 C.2      948 DG      0.0000
    782 O6         0.3343    -2.0554  3110.6244 O.2      948 DG      0.0000
    783 N1        -0.7533    -0.1282  3110.8724 N.am     948 DG      0.0000
    784 C2        -1.9188     0.5871  3111.0053 C.2      948 DG      0.0000
    785 N2        -1.7802     1.9062  3111.1410 N.pl3    948 DG      0.0000
    786 N3        -3.1588     0.0874  3111.0096 N.2      948 DG      0.0000
    787 C4        -3.1374    -1.2589  3110.8589 C.ar     948 DG      0.0000
    788 H5'       -8.9355    -4.2057  3111.7842 H        948 DG      0.0000
    789 H5''      -8.1129    -3.9266  3113.3473 H        948 DG      0.0000
    790 H4'       -8.2067    -1.7704  3112.3883 H        948 DG      0.0000
    791 H3'       -8.3284    -3.0896  3109.8889 H        948 DG      0.0000
    792 H2'       -6.0937    -3.0736  3109.3845 H        948 DG      0.0000
    793 H2''      -6.4144    -1.3639  3108.9553 H        948 DG      0.0000
    794 H1'       -5.6768    -0.5635  3111.0240 H        948 DG      0.0000
    795 H8        -4.3850    -4.2204  3110.5984 H        948 DG      0.0000
    796 H1         0.1276     0.3657  3110.8853 H        948 DG      0.0000
    797 H21       -0.8588     2.3198  3111.1419 H        948 DG      0.0000
    798 H22       -2.5967     2.4919  3111.2428 H        948 DG      0.0000
    799 P         -8.5839     0.2260  3109.2527 P.3      947 DA      0.0000
    800 OP1       -9.1595     1.4139  3110.0341 O.co2    947 DA      0.0000
    801 OP2       -9.3909    -0.0412  3108.0600 O.co2    947 DA      0.0000
    802 O5'       -6.9953     0.5422  3109.0779 O.3      947 DA      0.0000
    803 C5'       -6.4589     1.2880  3110.2344 C.3      947 DA      0.0000
    804 C4'       -5.9892     2.6210  3109.7066 C.3      947 DA      0.0000
    805 O4'       -4.6022     2.6527  3109.4843 O.3      947 DA      0.0000
    806 C3'       -6.6243     2.9884  3108.3661 C.3      947 DA      0.0000
    807 O3'       -6.9798     4.3483  3108.2909 O.3      947 DA      0.0000
    808 C2'       -5.6034     2.4695  3107.3695 C.3      947 DA      0.0000
    809 C1'       -4.2867     2.4239  3108.0933 C.3      947 DA      0.0000
    810 N9        -3.5861     1.1481  3107.8678 N.ar     947 DA      0.0000
    811 C8        -4.1164    -0.1102  3107.6815 C.ar     947 DA      0.0000
    812 N7        -3.2218    -1.0513  3107.4856 N.ar     947 DA      0.0000
    813 C5        -2.0160    -0.3668  3107.5724 C.ar     947 DA      0.0000
    814 C6        -0.6775    -0.8120  3107.4668 C.ar     947 DA      0.0000
    815 N6        -0.3357    -2.0706  3107.2543 N.pl3    947 DA      0.0000
    816 N1         0.2832     0.1450  3107.5905 N.ar     947 DA      0.0000
    817 C2        -0.0406     1.4527  3107.8150 C.ar     947 DA      0.0000
    818 N3        -1.2761     1.9353  3107.9309 N.ar     947 DA      0.0000
    819 C4        -2.2222     0.9749  3107.7948 C.ar     947 DA      0.0000
    820 H5'       -7.2383     1.4333  3110.9824 H        947 DA      0.0000
    821 H5''      -5.6209     0.7448  3110.6710 H        947 DA      0.0000
    822 H4'       -6.2424     3.3920  3110.4342 H        947 DA      0.0000
    823 H3'       -7.5334     2.3976  3108.2530 H        947 DA      0.0000
    824 H2'       -5.5390     3.1400  3106.5126 H        947 DA      0.0000
    825 H2''      -5.8813     1.4686  3107.0390 H        947 DA      0.0000
    826 H1'       -3.6587     3.2396  3107.7352 H        947 DA      0.0000
    827 H8        -5.1784    -0.3058  3107.6954 H        947 DA      0.0000
    828 H2         0.7747     2.1550  3107.9063 H        947 DA      0.0000
    829 H61        0.5536    -2.4308  3107.5697 H        947 DA      0.0000
    830 H62       -0.9749    -2.6830  3106.7681 H        947 DA      0.0000
    831 P         -6.8864     5.3898  3107.1063 P.3      946 DA      0.0000
    832 OP1       -7.1576     6.8318  3107.6262 O.co2    946 DA      0.0000
    833 OP2       -7.9867     4.9947  3106.1726 O.co2    946 DA      0.0000
    834 O5'       -5.3933     5.3983  3106.6036 O.3      946 DA      0.0000
    835 C5'       -4.4853     6.4224  3107.0594 C.3      946 DA      0.0000
    836 C4'       -3.1656     6.1869  3106.3575 C.3      946 DA      0.0000
    837 O4'       -2.8104     4.8390  3106.2367 O.3      946 DA      0.0000
    838 C3'       -3.1100     6.7791  3104.9500 C.3      946 DA      0.0000
    839 O3'       -2.1481     7.8504  3104.9185 O.3      946 DA      0.0000
    840 C2'       -2.8752     5.5643  3104.0504 C.3      946 DA      0.0000
    841 C1'       -2.1507     4.6076  3104.9482 C.3      946 DA      0.0000
    842 N9        -2.3073     3.1882  3104.6486 N.ar     946 DA      0.0000
    843 C8        -3.4621     2.4590  3104.4539 C.ar     946 DA      0.0000
    844 N7        -3.2520     1.1779  3104.2484 N.ar     946 DA      0.0000
    845 C5        -1.8792     1.0444  3104.3230 C.ar     946 DA      0.0000
    846 C6        -1.0319    -0.0784  3104.1895 C.ar     946 DA      0.0000
    847 N6        -1.4681    -1.3105  3103.9463 N.pl3    946 DA      0.0000
    848 N1         0.3073     0.1795  3104.3383 N.ar     946 DA      0.0000
    849 C2         0.7781     1.4159  3104.5908 C.ar     946 DA      0.0000
    850 N3         0.0393     2.5210  3104.7297 N.ar     946 DA      0.0000
    851 C4        -1.2795     2.2638  3104.5825 C.ar     946 DA      0.0000
    852 H5'       -4.8742     7.4081  3106.8043 H        946 DA      0.0000
    853 H5''      -4.3504     6.3449  3108.1382 H        946 DA      0.0000
    854 H4'       -2.3909     6.6763  3106.9476 H        946 DA      0.0000
    855 H3'       -4.0903     7.1935  3104.7150 H        946 DA      0.0000
    856 H2'       -3.8206     5.1413  3103.7105 H        946 DA      0.0000
    857 H2''      -2.2509     5.8354  3103.1991 H        946 DA      0.0000
    858 H1'       -1.0943     4.8692  3105.0093 H        946 DA      0.0000
    859 H8        -4.4478     2.9001  3104.4688 H        946 DA      0.0000
    860 H2         1.8481     1.5240  3104.6899 H        946 DA      0.0000
    861 H61       -0.8498    -2.0531  3104.2403 H        946 DA      0.0000
    862 H62       -2.3554    -1.4914  3103.4990 H        946 DA      0.0000
    863 P         -1.8956     8.6315  3103.5336 P.3      945 DT      0.0000
    864 OP1       -1.1440     9.9256  3103.5917 O.co2    945 DT      0.0000
    865 OP2       -3.2967     8.7266  3103.0209 O.co2    945 DT      0.0000
    866 O5'       -0.8666     7.5249  3102.8304 O.3      945 DT      0.0000
    867 C5'        0.0654     7.0377  3103.8427 C.3      945 DT      0.0000
    868 C4'        1.2828     6.5017  3103.1598 C.3      945 DT      0.0000
    869 O4'        1.2577     5.1173  3102.9794 O.3      945 DT      0.0000
    870 C3'        1.5568     7.1222  3101.7985 C.3      945 DT      0.0000
    871 O3'        2.9532     7.3003  3101.5312 O.3      945 DT      0.0000
    872 C2'        0.8472     6.0963  3100.9052 C.3      945 DT      0.0000
    873 C1'        1.2670     4.7903  3101.5452 C.3      945 DT      0.0000
    874 N1         0.2627     3.7347  3101.3152 N.am     945 DT      0.0000
    875 C2         0.7190     2.4340  3101.1936 C.2      945 DT      0.0000
    876 O2         1.9230     2.1753  3101.2304 O.2      945 DT      0.0000
    877 N3        -0.2080     1.4413  3101.0262 N.am     945 DT      0.0000
    878 C4        -1.5417     1.7035  3100.9777 C.2      945 DT      0.0000
    879 O4        -2.3266     0.7261  3100.7922 O.2      945 DT      0.0000
    880 C5        -1.9912     3.0454  3101.1261 C.2      945 DT      0.0000
    881 C7        -3.4643     3.3741  3101.0740 C.3      945 DT      0.0000
    882 C6        -1.0738     4.0027  3101.2991 C.2      945 DT      0.0000
    883 H5'        0.3476     7.8564  3104.5048 H        945 DT      0.0000
    884 H5''      -0.4070     6.2449  3104.4228 H        945 DT      0.0000
    885 H4'        2.1375     6.7293  3103.7968 H        945 DT      0.0000
    886 H3'        1.0466     8.0827  3101.7265 H        945 DT      0.0000
    887 H2'       -0.2349     6.2240  3100.9358 H        945 DT      0.0000
    888 H2''       1.2137     6.1587  3099.8806 H        945 DT      0.0000
    889 H1'        2.2573     4.4807  3101.2113 H        945 DT      0.0000
    890 H3         0.1075     0.4861  3100.9361 H        945 DT      0.0000
    891 H6        -1.4028     5.0229  3101.4305 H        945 DT      0.0000
    892 H71       -3.7285     3.7025  3100.0688 H        945 DT      0.0000
    893 H72       -3.6841     4.1700  3101.7856 H        945 DT      0.0000
    894 H73       -4.0437     2.4872  3101.3305 H        945 DT      0.0000
    895 P          3.3218     7.8648  3100.0413 P.3      944 DT      0.0000
    896 OP1        3.9311     9.2603  3100.1893 O.co2    944 DT      0.0000
    897 OP2        1.9815     7.9671  3099.3715 O.co2    944 DT      0.0000
    898 O5'        4.3064     6.8609  3099.3893 O.3      944 DT      0.0000
    899 C5'        5.2249     6.0672  3100.1407 C.3      944 DT      0.0000
    900 C4'        5.4661     4.7953  3099.3927 C.3      944 DT      0.0000
    901 O4'        4.4345     3.8475  3099.3357 O.3      944 DT      0.0000
    902 C3'        5.9371     4.9095  3097.9266 C.3      944 DT      0.0000
    903 O3'        6.8119     3.7820  3097.8229 O.3      944 DT      0.0000
    904 C2'        4.6241     4.6922  3097.1629 C.3      944 DT      0.0000
    905 C1'        4.1561     3.4779  3097.9386 C.3      944 DT      0.0000
    906 N1         2.7288     3.1622  3097.8325 N.am     944 DT      0.0000
    907 C2         2.4141     1.7966  3097.8318 C.2      944 DT      0.0000
    908 O2         3.2994     0.9397  3097.8749 O.2      944 DT      0.0000
    909 N3         1.0910     1.4643  3097.7784 N.am     944 DT      0.0000
    910 C4         0.0979     2.3962  3097.7186 C.2      944 DT      0.0000
    911 O4        -1.1003     1.9865  3097.6562 O.2      944 DT      0.0000
    912 C5         0.4451     3.7747  3097.7269 C.2      944 DT      0.0000
    913 C7        -0.6481     4.8209  3097.6655 C.3      944 DT      0.0000
    914 C6         1.7407     4.0952  3097.7934 C.2      944 DT      0.0000
    915 H5'        6.1641     6.6067  3100.2629 H        944 DT      0.0000
    916 H5''       4.8006     5.8427  3101.1193 H        944 DT      0.0000
    917 H4'        6.2823     4.3014  3099.9199 H        944 DT      0.0000
    918 H3'        6.4216     5.8587  3097.6979 H        944 DT      0.0000
    919 H2'        4.7872     4.4747  3096.1073 H        944 DT      0.0000
    920 H2''       3.9442     5.5339  3097.2945 H        944 DT      0.0000
    921 H1'        4.7503     2.6078  3097.6596 H        944 DT      0.0000
    922 H3         0.8373     0.4867  3097.7833 H        944 DT      0.0000
    923 H6         2.0144     5.1396  3097.8171 H        944 DT      0.0000
    924 H71       -1.6198     4.3294  3097.6166 H        944 DT      0.0000
    925 H72       -0.5092     5.4396  3096.7789 H        944 DT      0.0000
    926 H73       -0.6022     5.4472  3098.5564 H        944 DT      0.0000
    927 P          7.8162     3.4852  3096.6767 P.3      943 DC      0.0000
    928 OP1        9.1751     3.1350  3097.2858 O.co2    943 DC      0.0000
    929 OP2        7.9284     4.7563  3095.8948 O.co2    943 DC      0.0000
    930 O5'        7.0867     2.2300  3095.9373 O.3      943 DC      0.0000
    931 C5'        7.1611     0.9585  3096.6618 C.3      943 DC      0.0000
    932 C4'        7.2465    -0.1181  3095.6112 C.3      943 DC      0.0000
    933 O4'        5.9990    -0.7245  3095.3660 O.3      943 DC      0.0000
    934 C3'        7.7631     0.3414  3094.2468 C.3      943 DC      0.0000
    935 O3'        8.5257    -0.6374  3093.5375 O.3      943 DC      0.0000
    936 C2'        6.4467     0.7316  3093.5607 C.3      943 DC      0.0000
    937 C1'        5.4701    -0.3080  3094.1073 C.3      943 DC      0.0000
    938 N1         4.1394     0.3334  3094.2251 N.am     943 DC      0.0000
    939 C2         3.0291    -0.5096  3094.2423 C.2      943 DC      0.0000
    940 O2         3.1578    -1.7396  3094.1736 O.2      943 DC      0.0000
    941 N3         1.7976     0.0787  3094.3456 N.2      943 DC      0.0000
    942 C4         1.6448     1.4270  3094.4163 C.2      943 DC      0.0000
    943 N4         0.4224     1.9534  3094.5182 N.pl3    943 DC      0.0000
    944 C5         2.7947     2.2646  3094.3912 C.2      943 DC      0.0000
    945 C6         4.0041     1.6858  3094.2976 C.2      943 DC      0.0000
    946 H5'        8.0460     0.9371  3097.2977 H        943 DC      0.0000
    947 H5''       6.2642     0.8201  3097.2657 H        943 DC      0.0000
    948 H4'        7.9234    -0.8888  3095.9800 H        943 DC      0.0000
    949 H3'        8.3714     1.2358  3094.3810 H        943 DC      0.0000
    950 H2'        6.5314     0.6608  3092.4763 H        943 DC      0.0000
    951 H2''       6.1430     1.7357  3093.8567 H        943 DC      0.0000
    952 H1'        5.4139    -1.1585  3093.4279 H        943 DC      0.0000
    953 H5         2.6980     3.3389  3094.4459 H        943 DC      0.0000
    954 H6         4.8873     2.3071  3094.2795 H        943 DC      0.0000
    955 H41       -0.3873     1.3500  3094.5389 H        943 DC      0.0000
    956 H42        0.3071     2.9553  3094.5746 H        943 DC      0.0000
    957 P          8.5171    -0.8711  3091.9055 P.3      942 DA      0.0000
    958 OP1        9.8128    -1.5493  3091.5160 O.co2    942 DA      0.0000
    959 OP2        8.3290     0.4907  3091.3355 O.co2    942 DA      0.0000
    960 O5'        7.3328    -1.9286  3091.7400 O.3      942 DA      0.0000
    961 C5'        7.5720    -3.3135  3092.2054 C.3      942 DA      0.0000
    962 C4'        6.6167    -4.1046  3091.3282 C.3      942 DA      0.0000
    963 O4'        5.2674    -3.7015  3091.5955 O.3      942 DA      0.0000
    964 C3'        6.8089    -3.8427  3089.8237 C.3      942 DA      0.0000
    965 O3'        6.1879    -4.8448  3089.0347 O.3      942 DA      0.0000
    966 C2'        5.9424    -2.5837  3089.6363 C.3      942 DA      0.0000
    967 C1'        4.7118    -3.1569  3090.3909 C.3      942 DA      0.0000
    968 N9         3.8101    -2.0188  3090.5364 N.ar     942 DA      0.0000
    969 C8         4.1716    -0.6921  3090.6092 C.ar     942 DA      0.0000
    970 N7         3.1502     0.1192  3090.7238 N.ar     942 DA      0.0000
    971 C5         2.0407    -0.7450  3090.7175 C.ar     942 DA      0.0000
    972 C6         0.6482    -0.4746  3090.8174 C.ar     942 DA      0.0000
    973 N6         0.1366     0.7536  3090.9402 N.pl3    942 DA      0.0000
    974 N1        -0.1443    -1.5822  3090.7823 N.ar     942 DA      0.0000
    975 C2         0.3745    -2.8289  3090.6634 C.ar     942 DA      0.0000
    976 N3         1.6673    -3.1541  3090.5719 N.ar     942 DA      0.0000
    977 C4         2.4391    -2.0536  3090.5994 C.ar     942 DA      0.0000
    978 H5'        8.6060    -3.6152  3092.0387 H        942 DA      0.0000
    979 H5''       7.3051    -3.4178  3093.2571 H        942 DA      0.0000
    980 H4'        6.7283    -5.1695  3091.5321 H        942 DA      0.0000
    981 H3'        7.8525    -3.6802  3089.5541 H        942 DA      0.0000
    982 H2'        6.3639    -1.7014  3090.1179 H        942 DA      0.0000
    983 H2''       5.7205    -2.4008  3088.5849 H        942 DA      0.0000
    984 H1'        4.2385    -3.9429  3089.8025 H        942 DA      0.0000
    985 H8         5.1967    -0.3540  3090.5752 H        942 DA      0.0000
    986 H2        -0.3317    -3.6456  3090.6402 H        942 DA      0.0000
    987 H61        0.7496     1.5559  3090.9650 H        942 DA      0.0000
    988 H62       -0.8632     0.8797  3091.0084 H        942 DA      0.0000
    989 P          6.9966    -5.5970  3087.8938 P.3      941 DC      0.0000
    990 OP1        7.7164    -6.6845  3088.6741 O.co2    941 DC      0.0000
    991 OP2        7.9110    -4.7081  3087.1682 O.co2    941 DC      0.0000
    992 O5'        5.7645    -6.0808  3086.9179 O.3      941 DC      0.0000
    993 C5'        4.6724    -6.8199  3087.5869 C.3      941 DC      0.0000
    994 C4'        3.3678    -6.4313  3086.9429 C.3      941 DC      0.0000
    995 O4'        2.7168    -5.3389  3087.5800 O.3      941 DC      0.0000
    996 C3'        3.5247    -6.0342  3085.4651 C.3      941 DC      0.0000
    997 O3'        2.4076    -6.3752  3084.6538 O.3      941 DC      0.0000
    998 C2'        3.5803    -4.4801  3085.6307 C.3      941 DC      0.0000
    999 C1'        2.2873    -4.4515  3086.5263 C.3      941 DC      0.0000
   1000 N1         1.9709    -3.0674  3086.7642 N.am     941 DC      0.0000
   1001 C2         0.6642    -2.7337  3087.0813 C.2      941 DC      0.0000
   1002 O2        -0.3250    -3.4616  3087.2218 O.2      941 DC      0.0000
   1003 N3         0.3694    -1.4133  3087.2796 N.2      941 DC      0.0000
   1004 C4         1.3171    -0.4340  3087.1636 C.2      941 DC      0.0000
   1005 N4         0.9832     0.8479  3087.3797 N.pl3    941 DC      0.0000
   1006 C5         2.6536    -0.7918  3086.8339 C.2      941 DC      0.0000
   1007 C6         2.9172    -2.0896  3086.6422 C.2      941 DC      0.0000
   1008 H5'        4.8322    -7.8924  3087.4754 H        941 DC      0.0000
   1009 H5''       4.6497    -6.5611  3088.6455 H        941 DC      0.0000
   1010 H4'        2.7012    -7.2924  3086.9896 H        941 DC      0.0000
   1011 H3'        4.4531    -6.4223  3085.0461 H        941 DC      0.0000
   1012 H2'        4.4739    -4.1306  3086.1478 H        941 DC      0.0000
   1013 H2''       3.4303    -3.9638  3084.6825 H        941 DC      0.0000
   1014 H1'        1.4657    -4.9165  3085.9814 H        941 DC      0.0000
   1015 H5         3.4271    -0.0437  3086.7418 H        941 DC      0.0000
   1016 H6         3.9244    -2.3773  3086.3790 H        941 DC      0.0000
   1017 H41        0.0321     1.0883  3087.6202 H        941 DC      0.0000
   1018 H42        1.6828     1.5721  3087.3017 H        941 DC      0.0000
   1019 P         -8.1070     5.8872  3121.2529 P.3      951 DG      0.0000
   1020 OP1       -8.7486     7.2250  3121.2514 O.co2    951 DG      0.0000
   1021 OP2       -6.9926     5.9313  3122.3086 O.co2    951 DG      0.0000
   1022 O5'       -9.0661     4.6302  3121.4313 O.3      951 DG      0.0000
   1023 C5'       -9.5544     3.7110  3120.4313 C.3      951 DG      0.0000
   1024 C4'       -9.3153     2.3012  3120.9301 C.3      951 DG      0.0000
   1025 O4'       -8.0666     1.7946  3120.5110 O.3      951 DG      0.0000
   1026 C3'       -9.4040     2.0528  3122.4223 C.3      951 DG      0.0000
   1027 O3'      -10.3415     0.9873  3122.7343 O.3      951 DG      0.0000
   1028 C2'       -7.9804     1.7425  3122.8442 C.3      951 DG      0.0000
   1029 C1'       -7.3517     1.1886  3121.5886 C.3      951 DG      0.0000
   1030 N9        -5.9133     1.5100  3121.5595 N.ar     951 DG      0.0000
   1031 C8        -5.2832     2.7104  3121.7884 C.ar     951 DG      0.0000
   1032 N7        -3.9735     2.6547  3121.6987 N.ar     951 DG      0.0000
   1033 C5        -3.7197     1.3228  3121.3817 C.ar     951 DG      0.0000
   1034 C6        -2.5103     0.6203  3121.1558 C.2      951 DG      0.0000
   1035 O6        -1.3594     1.0575  3121.1770 O.2      951 DG      0.0000
   1036 N1        -2.6539    -0.7108  3120.8743 N.am     951 DG      0.0000
   1037 C2        -3.8053    -1.2995  3120.8136 C.2      951 DG      0.0000
   1038 N2        -3.6607    -2.5325  3120.5168 N.pl3    951 DG      0.0000
   1039 N3        -5.0491    -0.6952  3121.0223 N.2      951 DG      0.0000
   1040 C4        -4.9004     0.6091  3121.2949 C.ar     951 DG      0.0000
   1041 H5'      -10.6210     3.8705  3120.2726 H        951 DG      0.0000
   1042 H5''      -9.0167     3.8660  3119.4960 H        951 DG      0.0000
   1043 H4'      -10.0763     1.6744  3120.4654 H        951 DG      0.0000
   1044 H3'       -9.7295     2.9683  3122.9163 H        951 DG      0.0000
   1045 H2'       -7.4658     2.6459  3123.1712 H        951 DG      0.0000
   1046 H2''      -7.9731     0.9931  3123.6357 H        951 DG      0.0000
   1047 H1'       -7.4868     0.1074  3121.5566 H        951 DG      0.0000
   1048 H8        -5.8179     3.6194  3122.0215 H        951 DG      0.0000
   1049 H1        -1.8229    -1.2596  3120.7059 H        951 DG      0.0000
   1050 H21       -2.7360    -2.9121  3120.3725 H        951 DG      0.0000
   1051 H22       -4.4711    -3.1285  3120.4264 H        951 DG      0.0000
   1052 P        -10.4305     0.3210  3124.1629 P.3      952 DT      0.0000
   1053 OP1      -11.8155     0.0204  3124.6745 O.co2    952 DT      0.0000
   1054 OP2       -9.9087     1.4407  3125.0815 O.co2    952 DT      0.0000
   1055 O5'       -9.4339    -0.8659  3124.1914 O.3      952 DT      0.0000
   1056 C5'       -9.8460    -2.2530  3124.0475 C.3      952 DT      0.0000
   1057 C4'       -8.5550    -3.0426  3124.1050 C.3      952 DT      0.0000
   1058 O4'       -7.4272    -2.2410  3123.8298 O.3      952 DT      0.0000
   1059 C3'       -8.2366    -3.7125  3125.4177 C.3      952 DT      0.0000
   1060 O3'       -8.2620    -5.1350  3125.2295 O.3      952 DT      0.0000
   1061 C2'       -6.8429    -3.2224  3125.8099 C.3      952 DT      0.0000
   1062 C1'       -6.2762    -2.8779  3124.4572 C.3      952 DT      0.0000
   1063 N1        -5.2189    -1.8712  3124.5538 N.am     952 DT      0.0000
   1064 C2        -3.9308    -2.2890  3124.3559 C.2      952 DT      0.0000
   1065 O2        -3.6463    -3.4606  3124.1177 O.2      952 DT      0.0000
   1066 N3        -2.9479    -1.3396  3124.4369 N.am     952 DT      0.0000
   1067 C4        -3.2040    -0.0367  3124.6928 C.2      952 DT      0.0000
   1068 O4        -2.1978     0.7185  3124.7381 O.2      952 DT      0.0000
   1069 C5        -4.5585     0.3825  3124.8925 C.2      952 DT      0.0000
   1070 C7        -4.8845     1.8136  3125.1724 C.3      952 DT      0.0000
   1071 C6        -5.5134    -0.5529  3124.8111 C.2      952 DT      0.0000
   1072 H5'      -10.5110    -2.5431  3124.8609 H        952 DT      0.0000
   1073 H5''     -10.3376    -2.4028  3123.0863 H        952 DT      0.0000
   1074 H4'       -8.6057    -3.8178  3123.3404 H        952 DT      0.0000
   1075 H3'       -8.9644    -3.4206  3126.1748 H        952 DT      0.0000
   1076 H2'       -6.8929    -2.3479  3126.4587 H        952 DT      0.0000
   1077 H2''      -6.2687    -4.0212  3126.2791 H        952 DT      0.0000
   1078 H1'       -5.9501    -3.7635  3123.9119 H        952 DT      0.0000
   1079 H3        -1.9889    -1.6249  3124.2995 H        952 DT      0.0000
   1080 H6        -6.5444    -0.2636  3124.9514 H        952 DT      0.0000
   1081 H71       -5.2687     2.2831  3124.2669 H        952 DT      0.0000
   1082 H72       -3.9837     2.3343  3125.4972 H        952 DT      0.0000
   1083 H73       -5.6385     1.8676  3125.9577 H        952 DT      0.0000
   1084 P         -8.8674    -5.9357  3126.5094 P.3      953 DG      0.0000
   1085 OP1       -9.6151    -7.0540  3125.7944 O.co2    953 DG      0.0000
   1086 OP2       -9.7251    -5.0387  3127.2630 O.co2    953 DG      0.0000
   1087 O5'       -7.4218    -6.3861  3127.1190 O.3      953 DG      0.0000
   1088 C5'       -6.5721    -6.9077  3126.0284 C.3      953 DG      0.0000
   1089 C4'       -5.1675    -6.9951  3126.5484 C.3      953 DG      0.0000
   1090 O4'       -4.3609    -5.8620  3126.3678 O.3      953 DG      0.0000
   1091 C3'       -5.1152    -7.3423  3128.0564 C.3      953 DG      0.0000
   1092 O3'       -4.2723    -8.5091  3128.2153 O.3      953 DG      0.0000
   1093 C2'       -4.6281    -6.0662  3128.7090 C.3      953 DG      0.0000
   1094 C1'       -3.7212    -5.4909  3127.6275 C.3      953 DG      0.0000
   1095 N9        -3.5385    -4.0450  3127.7970 N.ar     953 DG      0.0000
   1096 C8        -4.4671    -3.0989  3128.1332 C.ar     953 DG      0.0000
   1097 N7        -3.9957    -1.8745  3128.2189 N.ar     953 DG      0.0000
   1098 C5        -2.6518    -2.0339  3127.8889 C.ar     953 DG      0.0000
   1099 C6        -1.5966    -1.0819  3127.7946 C.2      953 DG      0.0000
   1100 O6        -1.6495     0.1420  3127.9869 O.2      953 DG      0.0000
   1101 N1        -0.3746    -1.6188  3127.4595 N.am     953 DG      0.0000
   1102 C2        -0.2102    -2.9517  3127.2358 C.2      953 DG      0.0000
   1103 N2         1.0470    -3.2955  3126.9269 N.pl3    953 DG      0.0000
   1104 N3        -1.1631    -3.8784  3127.3068 N.2      953 DG      0.0000
   1105 C4        -2.3577    -3.3560  3127.6334 C.ar     953 DG      0.0000
   1106 H5'       -6.9191    -7.8964  3125.7279 H        953 DG      0.0000
   1107 H5''      -6.6083    -6.2293  3125.1760 H        953 DG      0.0000
   1108 H4'       -4.6841    -7.8155  3126.0178 H        953 DG      0.0000
   1109 H3'       -6.1203    -7.5702  3128.4112 H        953 DG      0.0000
   1110 H2'       -5.4561    -5.3933  3128.9320 H        953 DG      0.0000
   1111 H2''      -4.0585    -6.2881  3129.6114 H        953 DG      0.0000
   1112 H1'       -2.7483    -5.9788  3127.6864 H        953 DG      0.0000
   1113 H8        -5.5046    -3.3384  3128.3138 H        953 DG      0.0000
   1114 H1         0.4240    -1.0059  3127.3772 H        953 DG      0.0000
   1115 H21        1.7662    -2.5880  3126.8767 H        953 DG      0.0000
   1116 H22        1.2759    -4.2621  3126.7443 H        953 DG      0.0000
   1117 P         -4.0900    -9.2040  3129.6037 P.3      954 DA      0.0000
   1118 OP1       -5.0750   -10.2701  3129.9591 O.co2    954 DA      0.0000
   1119 OP2       -4.4049    -7.9501  3130.4995 O.co2    954 DA      0.0000
   1120 O5'       -2.5472    -9.4732  3129.8528 O.3      954 DA      0.0000
   1121 C5'       -1.5528    -9.5827  3128.8238 C.3      954 DA      0.0000
   1122 C4'       -0.3893    -8.7271  3129.2981 C.3      954 DA      0.0000
   1123 O4'       -0.7175    -7.3572  3129.2077 O.3      954 DA      0.0000
   1124 C3'        0.0941    -8.9747  3130.7272 C.3      954 DA      0.0000
   1125 O3'        1.5312    -9.0891  3130.7794 O.3      954 DA      0.0000
   1126 C2'       -0.4355    -7.7376  3131.4626 C.3      954 DA      0.0000
   1127 C1'       -0.1912    -6.6921  3130.3850 C.3      954 DA      0.0000
   1128 N9        -0.9024    -5.4302  3130.6134 N.ar     954 DA      0.0000
   1129 C8        -2.2311    -5.1978  3130.8292 C.ar     954 DA      0.0000
   1130 N7        -2.5300    -3.9285  3130.9941 N.ar     954 DA      0.0000
   1131 C5        -1.3126    -3.2792  3130.8539 C.ar     954 DA      0.0000
   1132 C6        -0.9714    -1.9098  3130.9019 C.ar     954 DA      0.0000
   1133 N6        -1.8424    -0.9221  3131.1217 N.pl3    954 DA      0.0000
   1134 N1         0.3528    -1.6325  3130.7121 N.ar     954 DA      0.0000
   1135 C2         1.2530    -2.6189  3130.4944 C.ar     954 DA      0.0000
   1136 N3         1.0050    -3.9268  3130.4361 N.ar     954 DA      0.0000
   1137 C4        -0.3029    -4.1813  3130.6229 C.ar     954 DA      0.0000
   1138 H5'       -1.9408    -9.2080  3127.8766 H        954 DA      0.0000
   1139 H5''      -1.2365   -10.6202  3128.7160 H        954 DA      0.0000
   1140 H4'        0.4509    -8.9108  3128.6283 H        954 DA      0.0000
   1141 H3'       -0.3687    -9.8762  3131.1286 H        954 DA      0.0000
   1142 H2'       -1.4934    -7.8307  3131.7081 H        954 DA      0.0000
   1143 H2''       0.1565    -7.5279  3132.3535 H        954 DA      0.0000
   1144 H1'        0.8772    -6.5090  3130.2705 H        954 DA      0.0000
   1145 H8        -2.9691    -5.9856  3130.8613 H        954 DA      0.0000
   1146 H2         2.2796    -2.3145  3130.3530 H        954 DA      0.0000
   1147 H61       -2.8446    -1.0017  3131.0243 H        954 DA      0.0000
   1148 H62       -1.5435     0.0273  3130.9502 H        954 DA      0.0000
   1149 P          2.3006    -9.9853  3131.9209 P.3      955 DA      0.0000
   1150 OP1        3.0811   -11.0904  3131.2538 O.co2    955 DA      0.0000
   1151 OP2        1.1619   -10.4266  3132.7518 O.co2    955 DA      0.0000
   1152 O5'        3.4193    -8.9795  3132.4517 O.3      955 DA      0.0000
   1153 C5'        4.4518    -8.4413  3131.6274 C.3      955 DA      0.0000
   1154 C4'        4.8003    -7.0586  3132.1497 C.3      955 DA      0.0000
   1155 O4'        3.6741    -6.2279  3132.1779 O.3      955 DA      0.0000
   1156 C3'        5.4560    -6.9715  3133.5170 C.3      955 DA      0.0000
   1157 O3'        6.7764    -6.4349  3133.4392 O.3      955 DA      0.0000
   1158 C2'        4.4644    -6.1456  3134.3457 C.3      955 DA      0.0000
   1159 C1'        3.7072    -5.3534  3133.3519 C.3      955 DA      0.0000
   1160 N9         2.3130    -4.9565  3133.6200 N.ar     955 DA      0.0000
   1161 C8         1.1816    -5.7272  3133.7352 C.ar     955 DA      0.0000
   1162 N7         0.0778    -5.0384  3133.9045 N.ar     955 DA      0.0000
   1163 C5         0.5042    -3.7147  3133.8675 C.ar     955 DA      0.0000
   1164 C6        -0.2064    -2.4865  3133.9879 C.ar     955 DA      0.0000
   1165 N6        -1.5144    -2.3690  3134.1796 N.pl3    955 DA      0.0000
   1166 N1         0.5551    -1.3489  3133.8898 N.ar     955 DA      0.0000
   1167 C2         1.9042    -1.4300  3133.7007 C.ar     955 DA      0.0000
   1168 N3         2.6273    -2.5388  3133.5928 N.ar     955 DA      0.0000
   1169 C4         1.8660    -3.6476  3133.6847 C.ar     955 DA      0.0000
   1170 H5'        4.1025    -8.3698  3130.5973 H        955 DA      0.0000
   1171 H5''       5.3312    -9.0838  3131.6733 H        955 DA      0.0000
   1172 H4'        5.4982    -6.6192  3131.4370 H        955 DA      0.0000
   1173 H3'        5.5124    -7.9744  3133.9402 H        955 DA      0.0000
   1174 H2'        3.7953    -6.7986  3134.9060 H        955 DA      0.0000
   1175 H2''       5.0011    -5.4836  3135.0253 H        955 DA      0.0000
   1176 H1'        4.2826    -4.4610  3133.1059 H        955 DA      0.0000
   1177 H8         1.1992    -6.8061  3133.6903 H        955 DA      0.0000
   1178 H2         2.4398    -0.4947  3133.6315 H        955 DA      0.0000
   1179 H61       -2.0825    -3.1377  3134.5057 H        955 DA      0.0000
   1180 H62       -1.9568    -1.4804  3133.9928 H        955 DA      0.0000
   1181 P          8.0239    -6.8517  3134.3954 P.3      956 DT      0.0000
   1182 OP1        9.3149    -6.9988  3133.5981 O.co2    956 DT      0.0000
   1183 OP2        7.6801    -7.9940  3135.2160 O.co2    956 DT      0.0000
   1184 O5'        8.2980    -5.4489  3135.2091 O.3      956 DT      0.0000
   1185 C5'        8.1585    -4.3035  3134.2640 C.3      956 DT      0.0000
   1186 C4'        7.4091    -3.2591  3135.0517 C.3      956 DT      0.0000
   1187 O4'        6.0461    -3.5644  3135.2437 O.3      956 DT      0.0000
   1188 C3'        7.9841    -3.0748  3136.4683 C.3      956 DT      0.0000
   1189 O3'        8.8537    -1.9578  3136.4700 O.3      956 DT      0.0000
   1190 C2'        6.7569    -2.9341  3137.3656 C.3      956 DT      0.0000
   1191 C1'        5.6638    -2.7003  3136.4010 C.3      956 DT      0.0000
   1192 N1         4.2917    -3.0420  3136.7407 N.am     956 DT      0.0000
   1193 C2         3.3967    -1.9857  3136.8787 C.2      956 DT      0.0000
   1194 O2         3.7979    -0.8324  3136.7906 O.2      956 DT      0.0000
   1195 N3         2.0905    -2.2772  3137.1326 N.am     956 DT      0.0000
   1196 C4         1.6303    -3.5573  3137.2528 C.2      956 DT      0.0000
   1197 O4         0.3983    -3.7470  3137.5080 O.2      956 DT      0.0000
   1198 C5         2.5663    -4.6298  3137.0812 C.2      956 DT      0.0000
   1199 C7         2.1069    -6.0588  3137.1687 C.3      956 DT      0.0000
   1200 C6         3.8530    -4.3368  3136.8254 C.2      956 DT      0.0000
   1201 H5'        9.1374    -3.9307  3133.9624 H        956 DT      0.0000
   1202 H5''       7.5819    -4.6032  3133.3890 H        956 DT      0.0000
   1203 H4'        7.4802    -2.3087  3134.5226 H        956 DT      0.0000
   1204 H3'        8.5405    -3.9679  3136.7527 H        956 DT      0.0000
   1205 H2'        6.5848    -3.8450  3137.9390 H        956 DT      0.0000
   1206 H2''       6.8674    -2.0787  3138.0320 H        956 DT      0.0000
   1207 H1'        5.6954    -1.6580  3136.0836 H        956 DT      0.0000
   1208 H3         1.4355    -1.5154  3137.2363 H        956 DT      0.0000
   1209 H6         4.5583    -5.1422  3136.6833 H        956 DT      0.0000
   1210 H71        1.0383    -6.0851  3137.3818 H        956 DT      0.0000
   1211 H72        2.3006    -6.5611  3136.2209 H        956 DT      0.0000
   1212 H73        2.6490    -6.5665  3137.9665 H        956 DT      0.0000
   1213 P          9.8334    -1.4832  3137.5766 P.3      957 DT      0.0000
   1214 OP1       10.9550    -0.6046  3136.9645 O.co2    957 DT      0.0000
   1215 OP2       10.3783    -2.7134  3138.2066 O.co2    957 DT      0.0000
   1216 O5'        8.9750    -0.4553  3138.4589 O.3      957 DT      0.0000
   1217 C5'        8.6855     0.7777  3137.7472 C.3      957 DT      0.0000
   1218 C4'        7.5498     1.4640  3138.4233 C.3      957 DT      0.0000
   1219 O4'        6.3355     0.7240  3138.4000 O.3      957 DT      0.0000
   1220 C3'        7.8146     1.8334  3139.8899 C.3      957 DT      0.0000
   1221 O3'        7.3552     3.1455  3140.1540 O.3      957 DT      0.0000
   1222 C2'        6.9206     0.8076  3140.6263 C.3      957 DT      0.0000
   1223 C1'        5.7091     0.9153  3139.7227 C.3      957 DT      0.0000
   1224 N1         4.7412    -0.1241  3140.0204 N.am     957 DT      0.0000
   1225 C2         3.3997     0.2180  3140.0752 C.2      957 DT      0.0000
   1226 O2         3.0756     1.3914  3139.8868 O.2      957 DT      0.0000
   1227 N3         2.4917    -0.7679  3140.3412 N.am     957 DT      0.0000
   1228 C4         2.8639    -2.0606  3140.5482 C.2      957 DT      0.0000
   1229 O4         1.9658    -2.9219  3140.7715 O.2      957 DT      0.0000
   1230 C5         4.2463    -2.4019  3140.4831 C.2      957 DT      0.0000
   1231 C7         4.7350    -3.8054  3140.6930 C.3      957 DT      0.0000
   1232 C6         5.1246    -1.4212  3140.2220 C.2      957 DT      0.0000
   1233 H5'        9.5637     1.4231  3137.7596 H        957 DT      0.0000
   1234 H5''       8.4137     0.5498  3136.7164 H        957 DT      0.0000
   1235 H4'        7.3698     2.3944  3137.8848 H        957 DT      0.0000
   1236 H3'        8.8658     1.7139  3140.1524 H        957 DT      0.0000
   1237 H2'        7.3510    -0.1938  3140.6250 H        957 DT      0.0000
   1238 H2''       6.6899     1.1382  3141.6390 H        957 DT      0.0000
   1239 H1'        5.2544     1.9031  3139.7983 H        957 DT      0.0000
   1240 H3         1.5113    -0.5292  3140.3856 H        957 DT      0.0000
   1241 H6         6.1751    -1.6660  3140.1689 H        957 DT      0.0000
   1242 H71        3.8866    -4.4602  3140.8919 H        957 DT      0.0000
   1243 H72        5.2548    -4.1466  3139.7977 H        957 DT      0.0000
   1244 H73        5.4189    -3.8290  3141.5414 H        957 DT      0.0000
   1245 P          7.9615     4.4591  3140.7619 P.3      958 DC      0.0000
   1246 OP1        8.1804     5.5135  3139.6940 O.co2    958 DC      0.0000
   1247 OP2        9.1651     4.0293  3141.4969 O.co2    958 DC      0.0000
   1248 O5'        6.6290     4.9087  3141.5880 O.3      958 DC      0.0000
   1249 C5'        5.5660     4.8872  3140.5657 C.3      958 DC      0.0000
   1250 C4'        4.2780     5.2227  3141.2622 C.3      958 DC      0.0000
   1251 O4'        3.4924     4.0980  3141.5091 O.3      958 DC      0.0000
   1252 C3'        4.4289     6.0187  3142.5537 C.3      958 DC      0.0000
   1253 O3'        3.6922     7.2318  3142.4740 O.3      958 DC      0.0000
   1254 C2'        4.0117     4.9855  3143.6024 C.3      958 DC      0.0000
   1255 C1'        3.0453     4.1115  3142.9060 C.3      958 DC      0.0000
   1256 N1         3.0764     2.6837  3143.2381 N.am     958 DC      0.0000
   1257 C2         1.8416     2.0915  3143.4939 C.2      958 DC      0.0000
   1258 O2         0.7996     2.7541  3143.4984 O.2      958 DC      0.0000
   1259 N3         1.8298     0.7461  3143.7678 N.2      958 DC      0.0000
   1260 C4         2.9763     0.0073  3143.7578 C.2      958 DC      0.0000
   1261 N4         2.8616    -1.2870  3144.0347 N.pl3    958 DC      0.0000
   1262 C5         4.2189     0.6181  3143.4798 C.2      958 DC      0.0000
   1263 C6         4.2140     1.9407  3143.2150 C.2      958 DC      0.0000
   1264 H5'        5.7762     5.6258  3139.7921 H        958 DC      0.0000
   1265 H5''       5.4992     3.8941  3140.1215 H        958 DC      0.0000
   1266 H4'        3.7105     5.8516  3140.5762 H        958 DC      0.0000
   1267 H3'        5.4827     6.2576  3142.6970 H        958 DC      0.0000
   1268 H2'        4.8745     4.4114  3143.9403 H        958 DC      0.0000
   1269 H2''       3.5325     5.4789  3144.4480 H        958 DC      0.0000
   1270 H1'        2.0333     4.5080  3142.9870 H        958 DC      0.0000
   1271 H5         5.1367     0.0489  3143.4792 H        958 DC      0.0000
   1272 H6         5.1482     2.4270  3142.9760 H        958 DC      0.0000
   1273 H41        1.9539    -1.6823  3144.2339 H        958 DC      0.0000
   1274 H42        3.6823    -1.8755  3144.0460 H        958 DC      0.0000
   1275 P          3.8769     8.5329  3143.4260 P.3      959 DA      0.0000
   1276 OP1        3.4003     9.7342  3142.6323 O.co2    959 DA      0.0000
   1277 OP2        5.3090     8.6400  3143.7716 O.co2    959 DA      0.0000
   1278 O5'        2.9151     8.2151  3144.7230 O.3      959 DA      0.0000
   1279 C5'        1.5295     7.8603  3144.4278 C.3      959 DA      0.0000
   1280 C4'        0.8036     7.5023  3145.6831 C.3      959 DA      0.0000
   1281 O4'        0.6654     6.0990  3145.9252 O.3      959 DA      0.0000
   1282 C3'        1.4511     7.9944  3146.9883 C.3      959 DA      0.0000
   1283 O3'        0.4599     7.9898  3148.0183 O.3      959 DA      0.0000
   1284 C2'        2.4729     6.8599  3147.2029 C.3      959 DA      0.0000
   1285 C1'        1.4876     5.7007  3147.0197 C.3      959 DA      0.0000
   1286 N9         2.2278     4.4538  3146.9253 N.ar     959 DA      0.0000
   1287 C8         3.5704     4.2218  3146.8095 C.ar     959 DA      0.0000
   1288 N7         3.9167     2.9471  3146.7909 N.ar     959 DA      0.0000
   1289 C5         2.7006     2.2875  3146.8984 C.ar     959 DA      0.0000
   1290 C6         2.3673     0.9110  3146.9330 C.ar     959 DA      0.0000
   1291 N6         3.2431    -0.0742  3146.8477 N.pl3    959 DA      0.0000
   1292 N1         1.0404     0.6167  3147.0655 N.ar     959 DA      0.0000
   1293 C2         0.0978     1.6069  3147.1457 C.ar     959 DA      0.0000
   1294 N3         0.3321     2.9167  3147.1159 N.ar     959 DA      0.0000
   1295 C4         1.6541     3.1904  3146.9929 C.ar     959 DA      0.0000
   1296 H5'        1.0342     8.7093  3143.9567 H        959 DA      0.0000
   1297 H5''       1.5125     7.0095  3143.7465 H        959 DA      0.0000
   1298 H4'       -0.1967     7.9311  3145.6242 H        959 DA      0.0000
   1299 H3'        1.9282     8.9678  3146.8747 H        959 DA      0.0000
   1300 H2'        3.2631     6.8605  3146.4522 H        959 DA      0.0000
   1301 H2''       2.8827     6.8786  3148.2128 H        959 DA      0.0000
   1302 H1'        0.8598     5.6509  3147.9093 H        959 DA      0.0000
   1303 H8         4.2936     5.0208  3146.7385 H        959 DA      0.0000
   1304 H2        -0.9319     1.2959  3147.2422 H        959 DA      0.0000
   1305 H61        3.2046    -1.0673  3147.0278 H        959 DA      0.0000
   1306 H62        4.1520     0.2337  3146.5330 H        959 DA      0.0000
   1307 P         -0.6024     9.1782  3148.1587 P.3      960 DC      0.0000
   1308 OP1       -0.7508     9.9837  3146.9136 O.co2    960 DC      0.0000
   1309 OP2       -0.0399     9.9730  3149.3016 O.co2    960 DC      0.0000
   1310 O5'       -1.9647     8.4176  3148.4419 O.3      960 DC      0.0000
   1311 C5'       -2.7542     7.8481  3147.3542 C.3      960 DC      0.0000
   1312 C4'       -3.4489     6.6776  3148.0591 C.3      960 DC      0.0000
   1313 O4'       -2.4573     5.7267  3148.3711 O.3      960 DC      0.0000
   1314 C3'       -4.1303     7.0647  3149.3690 C.3      960 DC      0.0000
   1315 O3'       -5.5073     6.6301  3149.4369 O.3      960 DC      0.0000
   1316 C2'       -3.2405     6.4347  3150.4512 C.3      960 DC      0.0000
   1317 C1'       -2.7168     5.2331  3149.7751 C.3      960 DC      0.0000
   1318 N1        -1.4185     4.6644  3150.1279 N.am     960 DC      0.0000
   1319 C2        -1.3548     3.2725  3150.1010 C.2      960 DC      0.0000
   1320 O2        -2.3358     2.5693  3149.8941 O.2      960 DC      0.0000
   1321 N3        -0.1486     2.6972  3150.3541 N.2      960 DC      0.0000
   1322 C4         0.9702     3.4251  3150.5875 C.2      960 DC      0.0000
   1323 N4         2.0930     2.7475  3150.8184 N.pl3    960 DC      0.0000
   1324 C5         0.8951     4.8452  3150.5940 C.2      960 DC      0.0000
   1325 C6        -0.2984     5.4058  3150.3446 C.2      960 DC      0.0000
   1326 H5'       -3.4778     8.5667  3146.9693 H        960 DC      0.0000
   1327 H5''      -2.1063     7.4875  3146.5551 H        960 DC      0.0000
   1328 H4'       -4.1814     6.2314  3147.3864 H        960 DC      0.0000
   1329 H3'       -4.0983     8.1491  3149.4749 H        960 DC      0.0000
   1330 H2'       -2.4330     7.1084  3150.7382 H        960 DC      0.0000
   1331 H2''      -3.8347     6.1563  3151.3215 H        960 DC      0.0000
   1332 H1'       -3.4760     4.4512  3149.7618 H        960 DC      0.0000
   1333 H5         1.7672     5.4506  3150.7925 H        960 DC      0.0000
   1334 H6        -0.3724     6.4828  3150.3149 H        960 DC      0.0000
   1335 H41        2.0847     1.7376  3150.8074 H        960 DC      0.0000
   1336 H42        2.9530     3.2435  3151.0046 H        960 DC      0.0000
   1337 P          4.3115    -7.3114  3152.3964 P.3      960 DG      0.0000
   1338 OP1        5.1227    -8.5552  3152.5752 O.co2    960 DG      0.0000
   1339 OP2        4.8588    -6.3932  3151.3116 O.co2    960 DG      0.0000
   1340 O5'        2.7297    -7.7166  3152.1892 O.3      960 DG      0.0000
   1341 C5'        1.7836    -7.4844  3153.2850 C.3      960 DG      0.0000
   1342 C4'        0.4747    -7.0197  3152.6507 C.3      960 DG      0.0000
   1343 O4'        0.4043    -5.6232  3152.5549 O.3      960 DG      0.0000
   1344 C3'        0.2277    -7.5592  3151.2444 C.3      960 DG      0.0000
   1345 O3'       -1.1462    -7.9240  3150.9774 O.3      960 DG      0.0000
   1346 C2'        0.6891    -6.4005  3150.3421 C.3      960 DG      0.0000
   1347 C1'        0.2432    -5.2039  3151.1659 C.3      960 DG      0.0000
   1348 N9         1.0868    -4.0280  3150.8926 N.ar     960 DG      0.0000
   1349 C8         2.4519    -3.9851  3150.7359 C.ar     960 DG      0.0000
   1350 N7         2.9239    -2.7865  3150.5175 N.ar     960 DG      0.0000
   1351 C5         1.7937    -1.9779  3150.5423 C.ar     960 DG      0.0000
   1352 C6         1.6414    -0.5744  3150.3859 C.2      960 DG      0.0000
   1353 O6         2.5449     0.2507  3150.1890 O.2      960 DG      0.0000
   1354 N1         0.3438    -0.1336  3150.4728 N.am     960 DG      0.0000
   1355 C2        -0.7001    -0.9698  3150.6934 C.2      960 DG      0.0000
   1356 N2        -1.9000    -0.3991  3150.7568 N.pl3    960 DG      0.0000
   1357 N3        -0.6115    -2.2961  3150.8512 N.2      960 DG      0.0000
   1358 C4         0.6619    -2.7279  3150.7679 C.ar     960 DG      0.0000
   1359 H5'        1.6227    -8.4070  3153.8428 H        960 DG      0.0000
   1360 H5''       2.1685    -6.7113  3153.9499 H        960 DG      0.0000
   1361 H4'       -0.3443    -7.3542  3153.2874 H        960 DG      0.0000
   1362 H3'        0.8685    -8.4243  3151.0739 H        960 DG      0.0000
   1363 H2'        1.7696    -6.4091  3150.1994 H        960 DG      0.0000
   1364 H2''       0.1712    -6.4258  3149.3833 H        960 DG      0.0000
   1365 H1'       -0.8023    -4.9736  3150.9607 H        960 DG      0.0000
   1366 H8         3.0780    -4.8635  3150.7887 H        960 DG      0.0000
   1367 H1         0.1597     0.8539  3150.3680 H        960 DG      0.0000
   1368 H21       -1.9906     0.6002  3150.6417 H        960 DG      0.0000
   1369 H22       -2.7204    -0.9651  3150.9200 H        960 DG      0.0000
   1370 P         -1.6201    -7.7741  3149.4539 P.3      959 DT      0.0000
   1371 OP1       -2.7167    -8.7279  3149.0630 O.co2    959 DT      0.0000
   1372 OP2       -0.3526    -8.0964  3148.7534 O.co2    959 DT      0.0000
   1373 O5'       -2.1338    -6.2621  3149.3230 O.3      959 DT      0.0000
   1374 C5'       -3.5526    -6.0224  3149.5906 C.3      959 DT      0.0000
   1375 C4'       -3.9795    -4.7837  3148.8336 C.3      959 DT      0.0000
   1376 O4'       -2.9790    -3.7813  3148.8063 O.3      959 DT      0.0000
   1377 C3'       -4.3241    -5.0632  3147.3789 C.3      959 DT      0.0000
   1378 O3'       -5.4473    -4.3024  3146.8838 O.3      959 DT      0.0000
   1379 C2'       -3.0427    -4.7115  3146.6560 C.3      959 DT      0.0000
   1380 C1'       -2.6534    -3.4655  3147.4341 C.3      959 DT      0.0000
   1381 N1        -1.1982    -3.3090  3147.2828 N.am     959 DT      0.0000
   1382 C2        -0.7052    -2.0125  3147.3896 C.2      959 DT      0.0000
   1383 O2        -1.4678    -1.0711  3147.5793 O.2      959 DT      0.0000
   1384 N3         0.6463    -1.8469  3147.2694 N.am     959 DT      0.0000
   1385 C4         1.4850    -2.8987  3147.0518 C.2      959 DT      0.0000
   1386 O4         2.7312    -2.6454  3146.9543 O.2      959 DT      0.0000
   1387 C5         0.9507    -4.2146  3146.9455 C.2      959 DT      0.0000
   1388 C7         1.8667    -5.3825  3146.7165 C.3      959 DT      0.0000
   1389 C6        -0.3701    -4.3704  3147.0672 C.2      959 DT      0.0000
   1390 H5'       -4.1396    -6.8781  3149.2569 H        959 DT      0.0000
   1391 H5''      -3.7032    -5.8690  3150.6592 H        959 DT      0.0000
   1392 H4'       -4.8630    -4.3721  3149.3215 H        959 DT      0.0000
   1393 H3'       -4.5270    -6.1269  3147.2549 H        959 DT      0.0000
   1394 H2'       -2.2945    -5.4988  3146.7476 H        959 DT      0.0000
   1395 H2''      -3.2360    -4.4749  3145.6096 H        959 DT      0.0000
   1396 H1'       -3.1928    -2.5855  3147.0835 H        959 DT      0.0000
   1397 H3         1.0349    -0.9177  3147.3441 H        959 DT      0.0000
   1398 H6        -0.7925    -5.3615  3146.9931 H        959 DT      0.0000
   1399 H71        2.8957    -5.0297  3146.6478 H        959 DT      0.0000
   1400 H72        1.7774    -6.0822  3147.5474 H        959 DT      0.0000
   1401 H73        1.5916    -5.8835  3145.7884 H        959 DT      0.0000
   1402 P         -6.4539    -5.3679  3146.1054 P.3      958 DG      0.0000
   1403 OP1       -7.5459    -5.8977  3146.9766 O.co2    958 DG      0.0000
   1404 OP2       -5.4386    -6.3718  3145.6998 O.co2    958 DG      0.0000
   1405 O5'       -7.1231    -4.3991  3145.0246 O.3      958 DG      0.0000
   1406 C5'       -8.1843    -3.5060  3145.4480 C.3      958 DG      0.0000
   1407 C4'       -7.7304    -2.1223  3145.0003 C.3      958 DG      0.0000
   1408 O4'       -6.3521    -1.9637  3145.2710 O.3      958 DG      0.0000
   1409 C3'       -7.9408    -1.8406  3143.5126 C.3      958 DG      0.0000
   1410 O3'       -8.7209    -0.6769  3143.3041 O.3      958 DG      0.0000
   1411 C2'       -6.5368    -1.7986  3142.9359 C.3      958 DG      0.0000
   1412 C1'       -5.7013    -1.3785  3144.1220 C.3      958 DG      0.0000
   1413 N9        -4.3288    -1.8767  3143.9984 N.ar     958 DG      0.0000
   1414 C8        -3.9055    -3.1659  3143.8396 C.ar     958 DG      0.0000
   1415 N7        -2.6028    -3.2877  3143.7615 N.ar     958 DG      0.0000
   1416 C5        -2.1325    -1.9850  3143.8990 C.ar     958 DG      0.0000
   1417 C6        -0.8179    -1.4487  3143.9085 C.2      958 DG      0.0000
   1418 O6         0.2359    -2.0690  3143.8094 O.2      958 DG      0.0000
   1419 N1        -0.7586    -0.0921  3144.0575 N.am     958 DG      0.0000
   1420 C2        -1.8886     0.6779  3144.1903 C.2      958 DG      0.0000
   1421 N2        -1.6872     1.9890  3144.3260 N.pl3    958 DG      0.0000
   1422 N3        -3.1510     0.2380  3144.1946 N.2      958 DG      0.0000
   1423 C4        -3.1939    -1.1077  3144.0439 C.ar     958 DG      0.0000
   1424 H5'       -9.1260    -3.7746  3144.9693 H        958 DG      0.0000
   1425 H5''      -8.2910    -3.5351  3146.5324 H        958 DG      0.0000
   1426 H4'       -8.2819    -1.3769  3145.5733 H        958 DG      0.0000
   1427 H3'       -8.4664    -2.6887  3143.0740 H        958 DG      0.0000
   1428 H2'       -6.2334    -2.7793  3142.5695 H        958 DG      0.0000
   1429 H2''      -6.4721    -1.0563  3142.1403 H        958 DG      0.0000
   1430 H1'       -5.6972    -0.2920  3144.2090 H        958 DG      0.0000
   1431 H8        -4.5814    -4.0064  3143.7835 H        958 DG      0.0000
   1432 H1         0.1449     0.3592  3144.0703 H        958 DG      0.0000
   1433 H21       -0.7471     2.3581  3144.3270 H        958 DG      0.0000
   1434 H22       -2.4748     2.6130  3144.4278 H        958 DG      0.0000
   1435 P         -8.5633     0.6353  3142.4377 P.3      957 DA      0.0000
   1436 OP1       -9.0817     1.8493  3143.2191 O.co2    957 DA      0.0000
   1437 OP2       -9.3822     0.4069  3141.2450 O.co2    957 DA      0.0000
   1438 O5'       -6.9615     0.8753  3142.2630 O.3      957 DA      0.0000
   1439 C5'       -6.3901     1.5947  3143.4194 C.3      957 DA      0.0000
   1440 C4'       -5.8573     2.9038  3142.8916 C.3      957 DA      0.0000
   1441 O4'       -4.4704     2.8692  3142.6693 O.3      957 DA      0.0000
   1442 C3'       -6.4742     3.3010  3141.5511 C.3      957 DA      0.0000
   1443 O3'       -6.7644     4.6763  3141.4759 O.3      957 DA      0.0000
   1444 C2'       -5.4792     2.7340  3140.5545 C.3      957 DA      0.0000
   1445 C1'       -4.1662     2.6257  3141.2784 C.3      957 DA      0.0000
   1446 N9        -3.5272     1.3179  3141.0529 N.ar     957 DA      0.0000
   1447 C8        -4.1169     0.0863  3140.8665 C.ar     957 DA      0.0000
   1448 N7        -3.2682    -0.8964  3140.6706 N.ar     957 DA      0.0000
   1449 C5        -2.0312    -0.2702  3140.7575 C.ar     957 DA      0.0000
   1450 C6        -0.7155    -0.7787  3140.6518 C.ar     957 DA      0.0000
   1451 N6        -0.4341    -2.0522  3140.4394 N.pl3    957 DA      0.0000
   1452 N1         0.2898     0.1313  3140.7756 N.ar     957 DA      0.0000
   1453 C2         0.0287     1.4530  3141.0001 C.ar     957 DA      0.0000
   1454 N3        -1.1824     1.9939  3141.1160 N.ar     957 DA      0.0000
   1455 C4        -2.1732     1.0798  3140.9798 C.ar     957 DA      0.0000
   1456 H5'       -7.1617     1.7770  3144.1675 H        957 DA      0.0000
   1457 H5''      -5.5790     1.0121  3143.8561 H        957 DA      0.0000
   1458 H4'       -6.0735     3.6860  3143.6193 H        957 DA      0.0000
   1459 H3'       -7.4104     2.7543  3141.4380 H        957 DA      0.0000
   1460 H2'       -5.3829     3.4007  3139.6977 H        957 DA      0.0000
   1461 H2''      -5.8045     1.7476  3140.2240 H        957 DA      0.0000
   1462 H1'       -3.5000     3.4104  3140.9202 H        957 DA      0.0000
   1463 H8        -5.1871    -0.0584  3140.8804 H        957 DA      0.0000
   1464 H2         0.8767     2.1156  3141.0913 H        957 DA      0.0000
   1465 H61        0.4370    -2.4545  3140.7548 H        957 DA      0.0000
   1466 H62       -1.1018    -2.6335  3139.9531 H        957 DA      0.0000
   1467 P         -6.6214     5.7122  3140.2913 P.3      956 DA      0.0000
   1468 OP1       -6.8235     7.1655  3140.8112 O.co2    956 DA      0.0000
   1469 OP2       -7.7393     5.3701  3139.3576 O.co2    956 DA      0.0000
   1470 O5'       -5.1296     5.6494  3139.7886 O.3      956 DA      0.0000
   1471 C5'       -4.1738     6.6291  3140.2445 C.3      956 DA      0.0000
   1472 C4'       -2.8668     6.3309  3139.5425 C.3      956 DA      0.0000
   1473 O4'       -2.5763     4.9676  3139.4218 O.3      956 DA      0.0000
   1474 C3'       -2.7830     6.9198  3138.1350 C.3      956 DA      0.0000
   1475 O3'       -1.7711     7.9439  3138.1036 O.3      956 DA      0.0000
   1476 C2'       -2.6065     5.6951  3137.2355 C.3      956 DA      0.0000
   1477 C1'       -1.9284     4.7050  3138.1332 C.3      956 DA      0.0000
   1478 N9        -2.1525     3.2946  3137.8336 N.ar     956 DA      0.0000
   1479 C8        -3.3408     2.6213  3137.6389 C.ar     956 DA      0.0000
   1480 N7        -3.1921     1.3317  3137.4335 N.ar     956 DA      0.0000
   1481 C5        -1.8272     1.1329  3137.5080 C.ar     956 DA      0.0000
   1482 C6        -1.0344    -0.0290  3137.3745 C.ar     956 DA      0.0000
   1483 N6        -1.5289    -1.2390  3137.1313 N.pl3    956 DA      0.0000
   1484 N1         0.3155     0.1646  3137.5233 N.ar     956 DA      0.0000
   1485 C2         0.8447     1.3772  3137.7759 C.ar     956 DA      0.0000
   1486 N3         0.1596     2.5162  3137.9147 N.ar     956 DA      0.0000
   1487 C4        -1.1700     2.3222  3137.7675 C.ar     956 DA      0.0000
   1488 H5'       -4.5152     7.6322  3139.9893 H        956 DA      0.0000
   1489 H5''      -4.0427     6.5452  3141.3233 H        956 DA      0.0000
   1490 H4'       -2.0696     6.7828  3140.1327 H        956 DA      0.0000
   1491 H3'       -3.7425     7.3805  3137.9000 H        956 DA      0.0000
   1492 H2'       -3.5709     5.3177  3136.8956 H        956 DA      0.0000
   1493 H2''      -1.9699     5.9361  3136.3841 H        956 DA      0.0000
   1494 H1'       -0.8607     4.9159  3138.1943 H        956 DA      0.0000
   1495 H8        -4.3043     3.1090  3137.6539 H        956 DA      0.0000
   1496 H2         1.9187     1.4341  3137.8749 H        956 DA      0.0000
   1497 H61       -0.9468    -2.0102  3137.4253 H        956 DA      0.0000
   1498 H62       -2.4239    -1.3773  3136.6840 H        956 DA      0.0000
   1499 P         -1.4816     8.7121  3136.7186 P.3      955 DT      0.0000
   1500 OP1       -0.6691     9.9689  3136.7767 O.co2    955 DT      0.0000
   1501 OP2       -2.8766     8.8739  3136.2060 O.co2    955 DT      0.0000
   1502 O5'       -0.5066     7.5577  3136.0155 O.3      955 DT      0.0000
   1503 C5'        0.4011     7.0266  3137.0278 C.3      955 DT      0.0000
   1504 C4'        1.5915     6.4331  3136.3448 C.3      955 DT      0.0000
   1505 O4'        1.5005     5.0515  3136.1644 O.3      955 DT      0.0000
   1506 C3'        1.8948     7.0398  3134.9836 C.3      955 DT      0.0000
   1507 O3'        3.2981     7.1510  3134.7163 O.3      955 DT      0.0000
   1508 C2'        1.1371     6.0490  3134.0902 C.3      955 DT      0.0000
   1509 C1'        1.4941     4.7244  3134.7303 C.3      955 DT      0.0000
   1510 N1         0.4406     3.7179  3134.5003 N.am     955 DT      0.0000
   1511 C2         0.8343     2.3969  3134.3787 C.2      955 DT      0.0000
   1512 O2         2.0246     2.0811  3134.4154 O.2      955 DT      0.0000
   1513 N3        -0.1390     1.4496  3134.2113 N.am     955 DT      0.0000
   1514 C4        -1.4586     1.7751  3134.1627 C.2      955 DT      0.0000
   1515 O4        -2.2893     0.8362  3133.9772 O.2      955 DT      0.0000
   1516 C5        -1.8437     3.1370  3134.3111 C.2      955 DT      0.0000
   1517 C7        -3.2994     3.5355  3134.2590 C.3      955 DT      0.0000
   1518 C6        -0.8816     4.0493  3134.4841 C.2      955 DT      0.0000
   1519 H5'        0.7220     7.8308  3137.6899 H        955 DT      0.0000
   1520 H5''      -0.1086     6.2572  3137.6078 H        955 DT      0.0000
   1521 H4'        2.4561     6.6197  3136.9819 H        955 DT      0.0000
   1522 H3'        1.4310     8.0235  3134.9116 H        955 DT      0.0000
   1523 H2'        0.0624     6.2281  3134.1208 H        955 DT      0.0000
   1524 H2''       1.5062     6.0938  3133.0656 H        955 DT      0.0000
   1525 H1'        2.4685     4.3679  3134.3963 H        955 DT      0.0000
   1526 H3         0.1306     0.4804  3134.1211 H        955 DT      0.0000
   1527 H6        -1.1616     5.0841  3134.6155 H        955 DT      0.0000
   1528 H71       -3.5476     3.8762  3133.2538 H        955 DT      0.0000
   1529 H72       -3.4809     4.3411  3134.9706 H        955 DT      0.0000
   1530 H73       -3.9205     2.6773  3134.5155 H        955 DT      0.0000
   1531 P          3.6932     7.6974  3133.2264 P.3      954 DT      0.0000
   1532 OP1        4.3684     9.0622  3133.3744 O.co2    954 DT      0.0000
   1533 OP2        2.3593     7.8635  3132.5565 O.co2    954 DT      0.0000
   1534 O5'        4.6289     6.6477  3132.5743 O.3      954 DT      0.0000
   1535 C5'        5.5084     5.8110  3133.3257 C.3      954 DT      0.0000
   1536 C4'        5.6887     4.5291  3132.5777 C.3      954 DT      0.0000
   1537 O4'        4.6130     3.6315  3132.5207 O.3      954 DT      0.0000
   1538 C3'        6.1646     4.6206  3131.1117 C.3      954 DT      0.0000
   1539 O3'        6.9846     3.4527  3131.0079 O.3      954 DT      0.0000
   1540 C2'        4.8427     4.4662  3130.3479 C.3      954 DT      0.0000
   1541 C1'        4.3173     3.2757  3131.1237 C.3      954 DT      0.0000
   1542 N1         2.8765     3.0284  3131.0175 N.am     954 DT      0.0000
   1543 C2         2.4971     1.6794  3131.0169 C.2      954 DT      0.0000
   1544 O2         3.3404     0.7812  3131.0599 O.2      954 DT      0.0000
   1545 N3         1.1596     1.4105  3130.9634 N.am     954 DT      0.0000
   1546 C4         0.2121     2.3888  3130.9037 C.2      954 DT      0.0000
   1547 O4        -1.0042     2.0367  3130.8413 O.2      954 DT      0.0000
   1548 C5         0.6247     3.7492  3130.9119 C.2      954 DT      0.0000
   1549 C7        -0.4174     4.8463  3130.8505 C.3      954 DT      0.0000
   1550 C6         1.9341     4.0075  3130.9784 C.2      954 DT      0.0000
   1551 H5'        6.4723     6.3051  3133.4479 H        954 DT      0.0000
   1552 H5''       5.0739     5.6070  3134.3043 H        954 DT      0.0000
   1553 H4'        6.4804     3.9968  3133.1050 H        954 DT      0.0000
   1554 H3'        6.6938     5.5457  3130.8830 H        954 DT      0.0000
   1555 H2'        4.9953     4.2412  3129.2924 H        954 DT      0.0000
   1556 H2''       4.2037     5.3394  3130.4795 H        954 DT      0.0000
   1557 H1'        4.8693     2.3781  3130.8446 H        954 DT      0.0000
   1558 H3         0.8596     0.4462  3130.9683 H        954 DT      0.0000
   1559 H6         2.2573     5.0377  3131.0021 H        954 DT      0.0000
   1560 H71       -1.4114     4.4017  3130.8017 H        954 DT      0.0000
   1561 H72       -0.2491     5.4577  3129.9639 H        954 DT      0.0000
   1562 H73       -0.3416     5.4697  3131.7414 H        954 DT      0.0000
   1563 P          7.9736     3.1083  3129.8617 P.3      953 DC      0.0000
   1564 OP1        9.3142     2.6937  3130.4708 O.co2    953 DC      0.0000
   1565 OP2        8.1462     4.3726  3129.0798 O.co2    953 DC      0.0000
   1566 O5'        7.1851     1.8894  3129.1223 O.3      953 DC      0.0000
   1567 C5'        7.1986     0.6157  3129.8468 C.3      953 DC      0.0000
   1568 C4'        7.2326    -0.4637  3128.7963 C.3      953 DC      0.0000
   1569 O4'        5.9576    -1.0099  3128.5510 O.3      953 DC      0.0000
   1570 C3'        7.7705    -0.0293  3127.4318 C.3      953 DC      0.0000
   1571 O3'        8.4856    -1.0434  3126.7226 O.3      953 DC      0.0000
   1572 C2'        6.4742     0.4232  3126.7457 C.3      953 DC      0.0000
   1573 C1'        5.4491    -0.5686  3127.2923 C.3      953 DC      0.0000
   1574 N1         4.1506     0.1355  3127.4101 N.am     953 DC      0.0000
   1575 C2         3.0014    -0.6535  3127.4274 C.2      953 DC      0.0000
   1576 O2         3.0712    -1.8883  3127.3587 O.2      953 DC      0.0000
   1577 N3         1.7993    -0.0071  3127.5306 N.2      953 DC      0.0000
   1578 C4         1.7110     1.3469  3127.6013 C.2      953 DC      0.0000
   1579 N4         0.5151     1.9311  3127.7033 N.pl3    953 DC      0.0000
   1580 C5         2.8995     2.1287  3127.5762 C.2      953 DC      0.0000
   1581 C6         4.0799     1.4928  3127.4826 C.2      953 DC      0.0000
   1582 H5'        8.0816     0.5521  3130.4828 H        953 DC      0.0000
   1583 H5''       6.2962     0.5203  3130.4507 H        953 DC      0.0000
   1584 H4'        7.8720    -1.2658  3129.1650 H        953 DC      0.0000
   1585 H3'        8.4209     0.8350  3127.5660 H        953 DC      0.0000
   1586 H2'        6.5555     0.3484  3125.6613 H        953 DC      0.0000
   1587 H2''       6.2188     1.4407  3127.0417 H        953 DC      0.0000
   1588 H1'        5.3525    -1.4155  3126.6129 H        953 DC      0.0000
   1589 H5         2.8543     3.2064  3127.6310 H        953 DC      0.0000
   1590 H6         4.9919     2.0713  3127.4645 H        953 DC      0.0000
   1591 H41       -0.3224     1.3669  3127.7240 H        953 DC      0.0000
   1592 H42        0.4478     2.9373  3127.7596 H        953 DC      0.0000
   1593 P          8.4659    -1.2764  3125.0906 P.3      952 DA      0.0000
   1594 OP1        9.7277    -2.0157  3124.7011 O.co2    952 DA      0.0000
   1595 OP2        8.3429     0.0927  3124.5205 O.co2    952 DA      0.0000
   1596 O5'        7.2324    -2.2762  3124.9250 O.3      952 DA      0.0000
   1597 C5'        7.4052    -3.6710  3125.3905 C.3      952 DA      0.0000
   1598 C4'        6.4133    -4.4156  3124.5132 C.3      952 DA      0.0000
   1599 O4'        5.0848    -3.9486  3124.7805 O.3      952 DA      0.0000
   1600 C3'        6.6178    -4.1632  3123.0088 C.3      952 DA      0.0000
   1601 O3'        5.9497    -5.1345  3122.2197 O.3      952 DA      0.0000
   1602 C2'        5.8124    -2.8643  3122.8213 C.3      952 DA      0.0000
   1603 C1'        4.5558    -3.3781  3123.5760 C.3      952 DA      0.0000
   1604 N9         3.7094    -2.1982  3123.7214 N.ar     952 DA      0.0000
   1605 C8         4.1338    -0.8903  3123.7942 C.ar     952 DA      0.0000
   1606 N7         3.1523    -0.0312  3123.9089 N.ar     952 DA      0.0000
   1607 C5         2.0028    -0.8415  3123.9025 C.ar     952 DA      0.0000
   1608 C6         0.6248    -0.5049  3124.0024 C.ar     952 DA      0.0000
   1609 N6         0.1724     0.7463  3124.1253 N.pl3    952 DA      0.0000
   1610 N1        -0.2196    -1.5735  3123.9673 N.ar     952 DA      0.0000
   1611 C2         0.2391    -2.8436  3123.8484 C.ar     952 DA      0.0000
   1612 N3         1.5149    -3.2300  3123.7569 N.ar     952 DA      0.0000
   1613 C4         2.3383    -2.1676  3123.7845 C.ar     952 DA      0.0000
   1614 H5'        8.4237    -4.0217  3125.2237 H        952 DA      0.0000
   1615 H5''       7.1337    -3.7625  3126.4421 H        952 DA      0.0000
   1616 H4'        6.4740    -5.4846  3124.7171 H        952 DA      0.0000
   1617 H3'        7.6679    -4.0507  3122.7391 H        952 DA      0.0000
   1618 H2'        6.2755    -2.0031  3123.3029 H        952 DA      0.0000
   1619 H2''       5.5994    -2.6710  3121.7699 H        952 DA      0.0000
   1620 H1'        4.0456    -4.1406  3122.9875 H        952 DA      0.0000
   1621 H8         5.1739    -0.6015  3123.7602 H        952 DA      0.0000
   1622 H2        -0.5052    -3.6256  3123.8252 H        952 DA      0.0000
   1623 H61        0.8230     1.5184  3124.1500 H        952 DA      0.0000
   1624 H62       -0.8203     0.9199  3124.1934 H        952 DA      0.0000
   1625 P          6.7216    -5.9244  3121.0788 P.3      951 DC      0.0000
   1626 OP1        7.3886    -7.0451  3121.8591 O.co2    951 DC      0.0000
   1627 OP2        7.6774    -5.0802  3120.3532 O.co2    951 DC      0.0000
   1628 O5'        5.4679    -6.3489  3120.1029 O.3      951 DC      0.0000
   1629 C5'        4.3417    -7.0351  3120.7720 C.3      951 DC      0.0000
   1630 C4'        3.0571    -6.5846  3120.1279 C.3      951 DC      0.0000
   1631 O4'        2.4589    -5.4624  3120.7651 O.3      951 DC      0.0000
   1632 C3'        3.2328    -6.1955  3118.6501 C.3      951 DC      0.0000
   1633 O3'        2.1007    -6.4828  3117.8388 O.3      951 DC      0.0000
   1634 C2'        3.3624    -4.6458  3118.8158 C.3      951 DC      0.0000
   1635 C1'        2.0723    -4.5556  3119.7113 C.3      951 DC      0.0000
   1636 N1         1.8223    -3.1580  3119.9492 N.am     951 DC      0.0000
   1637 C2         0.5330    -2.7623  3120.2664 C.2      951 DC      0.0000
   1638 O2        -0.4898    -3.4422  3120.4068 O.2      951 DC      0.0000
   1639 N3         0.3015    -1.4293  3120.4646 N.2      951 DC      0.0000
   1640 C4         1.2949    -0.4964  3120.3486 C.2      951 DC      0.0000
   1641 N4         1.0225     0.8000  3120.5647 N.pl3    951 DC      0.0000
   1642 C5         2.6128    -0.9175  3120.0190 C.2      951 DC      0.0000
   1643 C6         2.8142    -2.2264  3119.8273 C.2      951 DC      0.0000
   1644 H5'        4.4502    -8.1139  3120.6605 H        951 DC      0.0000
   1645 H5''       4.3314    -6.7754  3121.8306 H        951 DC      0.0000
   1646 H4'        2.3502    -7.4129  3120.1747 H        951 DC      0.0000
   1647 H3'        4.1416    -6.6274  3118.2311 H        951 DC      0.0000
   1648 H2'        4.2717    -4.3394  3119.3329 H        951 DC      0.0000
   1649 H2''       3.2373    -4.1230  3117.8675 H        951 DC      0.0000
   1650 H1'        1.2294    -4.9808  3119.1664 H        951 DC      0.0000
   1651 H5         3.4211    -0.2072  3119.9268 H        951 DC      0.0000
   1652 H6         3.8065    -2.5618  3119.5640 H        951 DC      0.0000
   1653 H41        0.0840     1.0856  3120.8052 H        951 DC      0.0000
   1654 H42        1.7559     1.4900  3120.4868 H        951 DC      0.0000
   1655 P         -7.8169     6.2672  3154.4380 P.3      961 DG      0.0000
   1656 OP1       -8.3939     7.6342  3154.4364 O.co2    961 DG      0.0000
   1657 OP2       -6.7017     6.2582  3155.4937 O.co2    961 DG      0.0000
   1658 O5'       -8.8349     5.0575  3154.6164 O.3      961 DG      0.0000
   1659 C5'       -9.3665     4.1627  3153.6164 C.3      961 DG      0.0000
   1660 C4'       -9.1949     2.7430  3154.1152 C.3      961 DG      0.0000
   1661 O4'       -7.9718     2.1774  3153.6960 O.3      961 DG      0.0000
   1662 C3'       -9.2954     2.4991  3155.6074 C.3      961 DG      0.0000
   1663 O3'      -10.2826     1.4795  3155.9194 O.3      961 DG      0.0000
   1664 C2'       -7.8882     2.1212  3156.0293 C.3      961 DG      0.0000
   1665 C1'       -7.2866     1.5380  3154.7736 C.3      961 DG      0.0000
   1666 N9        -5.8345     1.7905  3154.7446 N.ar     961 DG      0.0000
   1667 C8        -5.1478     2.9594  3154.9734 C.ar     961 DG      0.0000
   1668 N7        -3.8423     2.8412  3154.8837 N.ar     961 DG      0.0000
   1669 C5        -3.6524     1.4987  3154.5667 C.ar     961 DG      0.0000
   1670 C6        -2.4779     0.7393  3154.3408 C.2      961 DG      0.0000
   1671 O6        -1.3074     1.1211  3154.3621 O.2      961 DG      0.0000
   1672 N1        -2.6848    -0.5833  3154.0593 N.am     961 DG      0.0000
   1673 C2        -3.8630    -1.1165  3153.9986 C.2      961 DG      0.0000
   1674 N2        -3.7774    -2.3549  3153.7019 N.pl3    961 DG      0.0000
   1675 N3        -5.0766    -0.4535  3154.2074 N.2      961 DG      0.0000
   1676 C4        -4.8657     0.8422  3154.4799 C.ar     961 DG      0.0000
   1677 H5'      -10.4243     4.3728  3153.4577 H        961 DG      0.0000
   1678 H5''      -8.8220     4.2918  3152.6810 H        961 DG      0.0000
   1679 H4'       -9.9849     2.1532  3153.6505 H        961 DG      0.0000
   1680 H3'       -9.5768     3.4291  3156.1013 H        961 DG      0.0000
   1681 H2'       -7.3310     2.9991  3156.3562 H        961 DG      0.0000
   1682 H2''      -7.9166     1.3723  3156.8207 H        961 DG      0.0000
   1683 H1'       -7.4732     0.4645  3154.7417 H        961 DG      0.0000
   1684 H8        -5.6385     3.8929  3155.2065 H        961 DG      0.0000
   1685 H1        -1.8809    -1.1712  3153.8909 H        961 DG      0.0000
   1686 H21       -2.8718    -2.7782  3153.5575 H        961 DG      0.0000
   1687 H22       -4.6152    -2.9116  3153.6114 H        961 DG      0.0000
   1688 P        -10.4034     0.8183  3157.3479 P.3      962 DT      0.0000
   1689 OP1      -11.8011     0.5841  3157.8596 O.co2    962 DT      0.0000
   1690 OP2       -9.8287     1.9119  3158.2666 O.co2    962 DT      0.0000
   1691 O5'       -9.4645    -0.4148  3157.3765 O.3      962 DT      0.0000
   1692 C5'       -9.9422    -1.7806  3157.2325 C.3      962 DT      0.0000
   1693 C4'       -8.6904    -2.6309  3157.2900 C.3      962 DT      0.0000
   1694 O4'       -7.5256    -1.8841  3157.0149 O.3      962 DT      0.0000
   1695 C3'       -8.4043    -3.3153  3158.6027 C.3      962 DT      0.0000
   1696 O3'       -8.4975    -4.7350  3158.4145 O.3      962 DT      0.0000
   1697 C2'       -6.9889    -2.8922  3158.9950 C.3      962 DT      0.0000
   1698 C1'       -6.4063    -2.5751  3157.6422 C.3      962 DT      0.0000
   1699 N1        -5.3022    -1.6201  3157.7388 N.am     962 DT      0.0000
   1700 C2        -4.0355    -2.0989  3157.5409 C.2      962 DT      0.0000
   1701 O2        -3.8072    -3.2827  3157.3027 O.2      962 DT      0.0000
   1702 N3        -3.0085    -1.1974  3157.6220 N.am     962 DT      0.0000
   1703 C4        -3.2021     0.1162  3157.8779 C.2      962 DT      0.0000
   1704 O4        -2.1610     0.8225  3157.9232 O.2      962 DT      0.0000
   1705 C5        -4.5351     0.5996  3158.0776 C.2      962 DT      0.0000
   1706 C7        -4.7924     2.0446  3158.3575 C.3      962 DT      0.0000
   1707 C6        -5.5335    -0.2892  3157.9961 C.2      962 DT      0.0000
   1708 H5'      -10.6203    -2.0388  3158.0459 H        962 DT      0.0000
   1709 H5''     -10.4405    -1.9069  3156.2713 H        962 DT      0.0000
   1710 H4'       -8.7781    -3.4028  3156.5255 H        962 DT      0.0000
   1711 H3'       -9.1174    -2.9890  3159.3598 H        962 DT      0.0000
   1712 H2'       -6.9970    -2.0163  3159.6438 H        962 DT      0.0000
   1713 H2''      -6.4534    -3.7175  3159.4642 H        962 DT      0.0000
   1714 H1'       -6.1229    -3.4754  3157.0969 H        962 DT      0.0000
   1715 H3        -2.0642    -1.5282  3157.4845 H        962 DT      0.0000
   1716 H6        -6.5495     0.0490  3158.1365 H        962 DT      0.0000
   1717 H71       -5.1538     2.5318  3157.4519 H        962 DT      0.0000
   1718 H72       -3.8678     2.5217  3158.6822 H        962 DT      0.0000
   1719 H73       -5.5430     2.1345  3159.1428 H        962 DT      0.0000
   1720 P         -9.1405    -5.5059  3159.6945 P.3      963 DG      0.0000
   1721 OP1       -9.9407    -6.5872  3158.9794 O.co2    963 DG      0.0000
   1722 OP2       -9.9545    -4.5689  3160.4480 O.co2    963 DG      0.0000
   1723 O5'       -7.7180    -6.0247  3160.3040 O.3      963 DG      0.0000
   1724 C5'       -6.8942    -6.5863  3159.2134 C.3      963 DG      0.0000
   1725 C4'       -5.4954    -6.7406  3159.7334 C.3      963 DG      0.0000
   1726 O4'       -4.6356    -5.6472  3159.5529 O.3      963 DG      0.0000
   1727 C3'       -5.4596    -7.0899  3161.2415 C.3      963 DG      0.0000
   1728 O3'       -4.6734    -8.2956  3161.4003 O.3      963 DG      0.0000
   1729 C2'       -4.9123    -5.8384  3161.8940 C.3      963 DG      0.0000
   1730 C1'       -3.9789    -5.3071  3160.8125 C.3      963 DG      0.0000
   1731 N9        -3.7275    -3.8716  3160.9820 N.ar     963 DG      0.0000
   1732 C8        -4.6098    -2.8823  3161.3182 C.ar     963 DG      0.0000
   1733 N7        -4.0806    -1.6817  3161.4040 N.ar     963 DG      0.0000
   1734 C5        -2.7458    -1.9050  3161.0740 C.ar     963 DG      0.0000
   1735 C6        -1.6464    -1.0045  3160.9796 C.2      963 DG      0.0000
   1736 O6        -1.6409     0.2205  3161.1719 O.2      963 DG      0.0000
   1737 N1        -0.4514    -1.5991  3160.6446 N.am     963 DG      0.0000
   1738 C2        -0.3508    -2.9383  3160.4208 C.2      963 DG      0.0000
   1739 N2         0.8886    -3.3417  3160.1120 N.pl3    963 DG      0.0000
   1740 N3        -1.3468    -3.8185  3160.4918 N.2      963 DG      0.0000
   1741 C4        -2.5151    -3.2397  3160.8184 C.ar     963 DG      0.0000
   1742 H5'       -7.2880    -7.5572  3158.9129 H        963 DG      0.0000
   1743 H5''      -6.8979    -5.9070  3158.3610 H        963 DG      0.0000
   1744 H4'       -5.0517    -7.5831  3159.2029 H        963 DG      0.0000
   1745 H3'       -6.4745    -7.2696  3161.5962 H        963 DG      0.0000
   1746 H2'       -5.7072    -5.1269  3162.1170 H        963 DG      0.0000
   1747 H2''      -4.3538    -6.0873  3162.7965 H        963 DG      0.0000
   1748 H1'       -3.0305    -5.8409  3160.8714 H        963 DG      0.0000
   1749 H8        -5.6577    -3.0719  3161.4989 H        963 DG      0.0000
   1750 H1         0.3755    -1.0250  3160.5622 H        963 DG      0.0000
   1751 H21        1.6407    -2.6694  3160.0618 H        963 DG      0.0000
   1752 H22        1.0711    -4.3181  3159.9293 H        963 DG      0.0000
   1753 P         -4.5244    -8.9984  3162.7888 P.3      964 DA      0.0000
   1754 OP1       -5.5592   -10.0163  3163.1441 O.co2    964 DA      0.0000
   1755 OP2       -4.7792    -7.7308  3163.6845 O.co2    964 DA      0.0000
   1756 O5'       -2.9963    -9.3409  3163.0379 O.3      964 DA      0.0000
   1757 C5'       -2.0082    -9.4977  3162.0088 C.3      964 DA      0.0000
   1758 C4'       -0.8052    -8.6986  3162.4831 C.3      964 DA      0.0000
   1759 O4'       -1.0677    -7.3146  3162.3928 O.3      964 DA      0.0000
   1760 C3'       -0.3342    -8.9689  3163.9122 C.3      964 DA      0.0000
   1761 O3'        1.0958    -9.1518  3163.9645 O.3      964 DA      0.0000
   1762 C2'       -0.8042    -7.7080  3164.6476 C.3      964 DA      0.0000
   1763 C1'       -0.5102    -6.6753  3163.5700 C.3      964 DA      0.0000
   1764 N9        -1.1604    -5.3810  3163.7985 N.ar     964 DA      0.0000
   1765 C8        -2.4765    -5.0854  3164.0142 C.ar     964 DA      0.0000
   1766 N7        -2.7146    -3.8033  3164.1792 N.ar     964 DA      0.0000
   1767 C5        -1.4675    -3.2128  3164.0390 C.ar     964 DA      0.0000
   1768 C6        -1.0614    -1.8613  3164.0869 C.ar     964 DA      0.0000
   1769 N6        -1.8843    -0.8331  3164.3067 N.pl3    964 DA      0.0000
   1770 N1         0.2745    -1.6474  3163.8971 N.ar     964 DA      0.0000
   1771 C2         1.1266    -2.6757  3163.6794 C.ar     964 DA      0.0000
   1772 N3         0.8165    -3.9703  3163.6211 N.ar     964 DA      0.0000
   1773 C4        -0.5021    -4.1621  3163.8080 C.ar     964 DA      0.0000
   1774 H5'       -2.3780    -9.1049  3161.0616 H        964 DA      0.0000
   1775 H5''      -1.7418   -10.5492  3161.9010 H        964 DA      0.0000
   1776 H4'        0.0252    -8.9221  3161.8133 H        964 DA      0.0000
   1777 H3'       -0.8395    -9.8474  3164.3136 H        964 DA      0.0000
   1778 H2'       -1.8654    -7.7505  3164.8931 H        964 DA      0.0000
   1779 H2''      -0.2029    -7.5268  3165.5385 H        964 DA      0.0000
   1780 H1'        0.5657    -6.5435  3163.4555 H        964 DA      0.0000
   1781 H8        -3.2513    -5.8372  3164.0463 H        964 DA      0.0000
   1782 H2         2.1665    -2.4206  3163.5380 H        964 DA      0.0000
   1783 H61       -2.8891    -0.8649  3164.2093 H        964 DA      0.0000
   1784 H62       -1.5405     0.1009  3164.1352 H        964 DA      0.0000
   1785 P          1.8216   -10.0837  3165.1059 P.3      965 DA      0.0000
   1786 OP1        2.5485   -11.2248  3164.4389 O.co2    965 DA      0.0000
   1787 OP2        0.6631   -10.4702  3165.9368 O.co2    965 DA      0.0000
   1788 O5'        2.9870    -9.1324  3165.6368 O.3      965 DA      0.0000
   1789 C5'        4.0440    -8.6441  3164.8124 C.3      965 DA      0.0000
   1790 C4'        4.4581    -7.2796  3165.3347 C.3      965 DA      0.0000
   1791 O4'        3.3728    -6.3961  3165.3629 O.3      965 DA      0.0000
   1792 C3'        5.1171    -7.2239  3166.7020 C.3      965 DA      0.0000
   1793 O3'        6.4617    -6.7509  3166.6242 O.3      965 DA      0.0000
   1794 C2'        4.1661    -6.3516  3167.5308 C.3      965 DA      0.0000
   1795 C1'        3.4476    -5.5242  3166.5370 C.3      965 DA      0.0000
   1796 N9         2.0739    -5.0612  3166.8050 N.ar     965 DA      0.0000
   1797 C8         0.9070    -5.7770  3166.9202 C.ar     965 DA      0.0000
   1798 N7        -0.1626    -5.0364  3167.0895 N.ar     965 DA      0.0000
   1799 C5         0.3264    -3.7345  3167.0525 C.ar     965 DA      0.0000
   1800 C6        -0.3248    -2.4738  3167.1730 C.ar     965 DA      0.0000
   1801 N6        -1.6257    -2.2940  3167.3646 N.pl3    965 DA      0.0000
   1802 N1         0.4901    -1.3739  3167.0748 N.ar     965 DA      0.0000
   1803 C2         1.8338    -1.5192  3166.8857 C.ar     965 DA      0.0000
   1804 N3         2.5032    -2.6612  3166.7779 N.ar     965 DA      0.0000
   1805 C4         1.6898    -3.7325  3166.8697 C.ar     965 DA      0.0000
   1806 H5'        3.6985    -8.5560  3163.7824 H        965 DA      0.0000
   1807 H5''       4.8917    -9.3278  3164.8584 H        965 DA      0.0000
   1808 H4'        5.1761    -6.8739  3164.6220 H        965 DA      0.0000
   1809 H3'        5.1256    -8.2283  3167.1252 H        965 DA      0.0000
   1810 H2'        3.4666    -6.9720  3168.0911 H        965 DA      0.0000
   1811 H2''       4.7337    -5.7160  3168.2104 H        965 DA      0.0000
   1812 H1'        4.0649    -4.6602  3166.2909 H        965 DA      0.0000
   1813 H8         0.8731    -6.8556  3166.8754 H        965 DA      0.0000
   1814 H2         2.4134    -0.6105  3166.8165 H        965 DA      0.0000
   1815 H61       -2.2299    -3.0348  3167.6908 H        965 DA      0.0000
   1816 H62       -2.0252    -1.3854  3167.1778 H        965 DA      0.0000
   1817 P          7.6879    -7.2267  3167.5804 P.3      966 DT      0.0000
   1818 OP1        8.9704    -7.4353  3166.7831 O.co2    966 DT      0.0000
   1819 OP2        7.2899    -8.3513  3168.4010 O.co2    966 DT      0.0000
   1820 O5'        8.0286    -5.8386  3168.3941 O.3      966 DT      0.0000
   1821 C5'        7.9439    -4.6878  3167.4490 C.3      966 DT      0.0000
   1822 C4'        7.2452    -3.6089  3168.2368 C.3      966 DT      0.0000
   1823 O4'        5.8691    -3.8488  3168.4287 O.3      966 DT      0.0000
   1824 C3'        7.8283    -3.4522  3169.6534 C.3      966 DT      0.0000
   1825 O3'        8.7503    -2.3780  3169.6550 O.3      966 DT      0.0000
   1826 C2'        6.6093    -3.2531  3170.5506 C.3      966 DT      0.0000
   1827 C1'        5.5285    -2.9674  3169.5860 C.3      966 DT      0.0000
   1828 N1         4.1417    -3.2433  3169.9257 N.am     966 DT      0.0000
   1829 C2         3.2981    -2.1455  3170.0637 C.2      966 DT      0.0000
   1830 O2         3.7539    -1.0126  3169.9757 O.2      966 DT      0.0000
   1831 N3         1.9795    -2.3744  3170.3177 N.am     966 DT      0.0000
   1832 C4         1.4587    -3.6310  3170.4378 C.2      966 DT      0.0000
   1833 O4         0.2190    -3.7617  3170.6930 O.2      966 DT      0.0000
   1834 C5         2.3425    -4.7470  3170.2662 C.2      966 DT      0.0000
   1835 C7         1.8154    -6.1524  3170.3538 C.3      966 DT      0.0000
   1836 C6         3.6417    -4.5157  3170.0105 C.2      966 DT      0.0000
   1837 H5'        8.9395    -4.3621  3167.1474 H        966 DT      0.0000
   1838 H5''       7.3536    -4.9597  3166.5740 H        966 DT      0.0000
   1839 H4'        7.3615    -2.6630  3167.7076 H        966 DT      0.0000
   1840 H3'        8.3415    -4.3708  3169.9377 H        966 DT      0.0000
   1841 H2'        6.3939    -4.1547  3171.1240 H        966 DT      0.0000
   1842 H2''       6.7604    -2.4039  3171.2170 H        966 DT      0.0000
   1843 H1'        5.6098    -1.9278  3169.2687 H        966 DT      0.0000
   1844 H3         1.3616    -1.5822  3170.4214 H        966 DT      0.0000
   1845 H6         4.3078    -5.3538  3169.8683 H        966 DT      0.0000
   1846 H71        0.7468    -6.1277  3170.5668 H        966 DT      0.0000
   1847 H72        1.9850    -6.6634  3169.4060 H        966 DT      0.0000
   1848 H73        2.3327    -6.6854  3171.1516 H        966 DT      0.0000
   1849 P          9.7515    -1.9507  3170.7617 P.3      967 DT      0.0000
   1850 OP1       10.9137    -1.1266  3170.1496 O.co2    967 DT      0.0000
   1851 OP2       10.2370    -3.2055  3171.3916 O.co2    967 DT      0.0000
   1852 O5'        8.9431    -0.8830  3171.6440 O.3      967 DT      0.0000
   1853 C5'        8.7127     0.3624  3170.9322 C.3      967 DT      0.0000
   1854 C4'        7.6110     1.1021  3171.6084 C.3      967 DT      0.0000
   1855 O4'        6.3628     0.4209  3171.5850 O.3      967 DT      0.0000
   1856 C3'        7.8932     1.4585  3173.0750 C.3      967 DT      0.0000
   1857 O3'        7.4969     2.7910  3173.3390 O.3      967 DT      0.0000
   1858 C2'        6.9512     0.4765  3173.8113 C.3      967 DT      0.0000
   1859 C1'        5.7463     0.6419  3172.9078 C.3      967 DT      0.0000
   1860 N1         4.7298    -0.3502  3173.2055 N.am     967 DT      0.0000
   1861 C2         3.4063     0.0556  3173.2603 C.2      967 DT      0.0000
   1862 O2         3.1385     1.2431  3173.0718 O.2      967 DT      0.0000
   1863 N3         2.4522    -0.8859  3173.5262 N.am     967 DT      0.0000
   1864 C4         2.7623    -2.1949  3173.7332 C.2      967 DT      0.0000
   1865 O4         1.8241    -3.0124  3173.9565 O.2      967 DT      0.0000
   1866 C5         4.1269    -2.6018  3173.6681 C.2      967 DT      0.0000
   1867 C7         4.5481    -4.0270  3173.8781 C.3      967 DT      0.0000
   1868 C6         5.0510    -1.6641  3173.4070 C.2      967 DT      0.0000
   1869 H5'        9.6207     0.9652  3170.9446 H        967 DT      0.0000
   1870 H5''       8.4303     0.1478  3169.9015 H        967 DT      0.0000
   1871 H4'        7.4756     2.0401  3171.0699 H        967 DT      0.0000
   1872 H3'        8.9374     1.2890  3173.3374 H        967 DT      0.0000
   1873 H2'        7.3333    -0.5443  3173.8101 H        967 DT      0.0000
   1874 H2''       6.7366     0.8177  3174.8240 H        967 DT      0.0000
   1875 H1'        5.3392     1.6502  3172.9834 H        967 DT      0.0000
   1876 H3         1.4843    -0.6007  3173.5706 H        967 DT      0.0000
   1877 H6         6.0886    -1.9587  3173.3539 H        967 DT      0.0000
   1878 H71        3.6694    -4.6406  3174.0770 H        967 DT      0.0000
   1879 H72        5.0510    -4.3926  3172.9828 H        967 DT      0.0000
   1880 H73        5.2300    -4.0832  3174.7264 H        967 DT      0.0000
   1881 P         -8.5233     1.0431  3175.6228 P.3      967 DA      0.0000
   1882 OP1       -8.9831     2.2805  3176.4042 O.co2    967 DA      0.0000
   1883 OP2       -9.3521     0.8541  3174.4301 O.co2    967 DA      0.0000
   1884 O5'       -6.9118     1.2065  3175.4480 O.3      967 DA      0.0000
   1885 C5'       -6.3068     1.8978  3176.6045 C.3      967 DA      0.0000
   1886 C4'       -5.7121     3.1799  3176.0766 C.3      967 DA      0.0000
   1887 O4'       -4.3284     3.0792  3175.8544 O.3      967 DA      0.0000
   1888 C3'       -6.3093     3.6062  3174.7361 C.3      967 DA      0.0000
   1889 O3'       -6.5336     4.9937  3174.6610 O.3      967 DA      0.0000
   1890 C2'       -5.3425     2.9923  3173.7396 C.3      967 DA      0.0000
   1891 C1'       -4.0362     2.8215  3174.4634 C.3      967 DA      0.0000
   1892 N9        -3.4603     1.4847  3174.2379 N.ar     967 DA      0.0000
   1893 C8        -4.1081     0.2827  3174.0515 C.ar     967 DA      0.0000
   1894 N7        -3.3073    -0.7394  3173.8556 N.ar     967 DA      0.0000
   1895 C5        -2.0417    -0.1730  3173.9425 C.ar     967 DA      0.0000
   1896 C6        -0.7519    -0.7437  3173.8369 C.ar     967 DA      0.0000
   1897 N6        -0.5315    -2.0291  3173.6244 N.pl3    967 DA      0.0000
   1898 N1         0.2958     0.1173  3173.9606 N.ar     967 DA      0.0000
   1899 C2         0.0980     1.4500  3174.1851 C.ar     967 DA      0.0000
   1900 N3        -1.0859     2.0481  3174.3010 N.ar     967 DA      0.0000
   1901 C4        -2.1192     1.1822  3174.1649 C.ar     967 DA      0.0000
   1902 H5'       -7.0687     2.1166  3177.3525 H        967 DA      0.0000
   1903 H5''      -5.5243     1.2771  3177.0411 H        967 DA      0.0000
   1904 H4'       -5.8907     3.9716  3176.8043 H        967 DA      0.0000
   1905 H3'       -7.2706     3.1047  3174.6230 H        967 DA      0.0000
   1906 H2'       -5.2145     3.6536  3172.8827 H        967 DA      0.0000
   1907 H2''      -5.7145     2.0225  3173.4090 H        967 DA      0.0000
   1908 H1'       -3.3333     3.5735  3174.1052 H        967 DA      0.0000
   1909 H8        -5.1840     0.1891  3174.0654 H        967 DA      0.0000
   1910 H2         0.9766     2.0714  3174.2764 H        967 DA      0.0000
   1911 H61        0.3194    -2.4725  3173.9398 H        967 DA      0.0000
   1912 H62       -1.2262    -2.5779  3173.1382 H        967 DA      0.0000
   1913 P         -6.3413     6.0216  3173.4764 P.3      966 DA      0.0000
   1914 OP1       -6.4739     7.4829  3173.9963 O.co2    966 DA      0.0000
   1915 OP2       -7.4743     5.7332  3172.5427 O.co2    966 DA      0.0000
   1916 O5'       -4.8543     5.8877  3172.9737 O.3      966 DA      0.0000
   1917 C5'       -3.8527     6.8207  3173.4295 C.3      966 DA      0.0000
   1918 C4'       -2.5615     6.4605  3172.7276 C.3      966 DA      0.0000
   1919 O4'       -2.3364     5.0848  3172.6068 O.3      966 DA      0.0000
   1920 C3'       -2.4497     7.0447  3171.3200 C.3      966 DA      0.0000
   1921 O3'       -1.3901     8.0194  3171.2886 O.3      966 DA      0.0000
   1922 C2'       -2.3318     5.8130  3170.4205 C.3      966 DA      0.0000
   1923 C1'       -1.7018     4.7917  3171.3183 C.3      966 DA      0.0000
   1924 N9        -1.9929     3.3935  3171.0187 N.ar     966 DA      0.0000
   1925 C8        -3.2119     2.7777  3170.8239 C.ar     966 DA      0.0000
   1926 N7        -3.1249     1.4825  3170.6185 N.ar     966 DA      0.0000
   1927 C5        -1.7711     1.2187  3170.6930 C.ar     966 DA      0.0000
   1928 C6        -1.0346     0.0203  3170.5595 C.ar     966 DA      0.0000
   1929 N6        -1.5863    -1.1646  3170.3164 N.pl3    966 DA      0.0000
   1930 N1         0.3230     0.1494  3170.7084 N.ar     966 DA      0.0000
   1931 C2         0.9095     1.3353  3170.9609 C.ar     966 DA      0.0000
   1932 N3         0.2794     2.5058  3171.0998 N.ar     966 DA      0.0000
   1933 C4        -1.0579     2.3754  3170.9525 C.ar     966 DA      0.0000
   1934 H5'       -4.1460     7.8390  3173.1744 H        966 DA      0.0000
   1935 H5''      -3.7258     6.7307  3174.5083 H        966 DA      0.0000
   1936 H4'       -1.7437     6.8738  3173.3177 H        966 DA      0.0000
   1937 H3'       -3.3861     7.5506  3171.0850 H        966 DA      0.0000
   1938 H2'       -3.3132     5.4820  3170.0806 H        966 DA      0.0000
   1939 H2''      -1.6844     6.0233  3169.5692 H        966 DA      0.0000
   1940 H1'       -0.6252     4.9513  3171.3794 H        966 DA      0.0000
   1941 H8        -4.1511     3.3108  3170.8389 H        966 DA      0.0000
   1942 H2         1.9849     1.3410  3171.0600 H        966 DA      0.0000
   1943 H61       -1.0416    -1.9628  3170.6104 H        966 DA      0.0000
   1944 H62       -2.4868    -1.2601  3169.8691 H        966 DA      0.0000
   1945 P         -1.0643     8.7729  3169.9036 P.3      965 DT      0.0000
   1946 OP1       -0.1927     9.9895  3169.9618 O.co2    965 DT      0.0000
   1947 OP2       -2.4499     9.0011  3169.3910 O.co2    965 DT      0.0000
   1948 O5'       -0.1454     7.5733  3169.2005 O.3      965 DT      0.0000
   1949 C5'        0.7359     6.9994  3170.2128 C.3      965 DT      0.0000
   1950 C4'        1.8967     6.3498  3169.5299 C.3      965 DT      0.0000
   1951 O4'        1.7398     4.9741  3169.3494 O.3      965 DT      0.0000
   1952 C3'        2.2285     6.9414  3168.1686 C.3      965 DT      0.0000
   1953 O3'        3.6356     6.9855  3167.9013 O.3      965 DT      0.0000
   1954 C2'        1.4244     5.9878  3167.2753 C.3      965 DT      0.0000
   1955 C1'        1.7178     4.6478  3167.9153 C.3      965 DT      0.0000
   1956 N1         0.6175     3.6927  3167.6853 N.am     965 DT      0.0000
   1957 C2         0.9477     2.3544  3167.5637 C.2      965 DT      0.0000
   1958 O2         2.1216     1.9821  3167.6005 O.2      965 DT      0.0000
   1959 N3        -0.0697     1.4546  3167.3963 N.am     965 DT      0.0000
   1960 C4        -1.3723     1.8426  3167.3478 C.2      965 DT      0.0000
   1961 O4        -2.2468     0.9445  3167.1623 O.2      965 DT      0.0000
   1962 C5        -1.6919     3.2214  3167.4962 C.2      965 DT      0.0000
   1963 C7        -3.1269     3.6889  3167.4441 C.3      965 DT      0.0000
   1964 C6        -0.6874     4.0868  3167.6692 C.2      965 DT      0.0000
   1965 H5'        1.0948     7.7875  3170.8749 H        965 DT      0.0000
   1966 H5''       0.1900     6.2553  3170.7928 H        965 DT      0.0000
   1967 H4'        2.7692     6.4950  3170.1669 H        965 DT      0.0000
   1968 H3'        1.8122     7.9461  3168.0966 H        965 DT      0.0000
   1969 H2'        0.3594     6.2180  3167.3059 H        965 DT      0.0000
   1970 H2''       1.7952     6.0150  3166.2507 H        965 DT      0.0000
   1971 H1'        2.6741     4.2451  3167.5813 H        965 DT      0.0000
   1972 H3         0.1533     0.4736  3167.3062 H        965 DT      0.0000
   1973 H6        -0.9177     5.1338  3167.8005 H        965 DT      0.0000
   1974 H71       -3.3586     4.0411  3166.4389 H        965 DT      0.0000
   1975 H72       -3.2699     4.5022  3168.1556 H        965 DT      0.0000
   1976 H73       -3.7883     2.8613  3167.7006 H        965 DT      0.0000
   1977 P          4.0562     7.5124  3166.4114 P.3      964 DT      0.0000
   1978 OP1        4.7958     8.8434  3166.5594 O.co2    964 DT      0.0000
   1979 OP2        2.7318     7.7419  3165.7416 O.co2    964 DT      0.0000
   1980 O5'        4.9408     6.4193  3165.7594 O.3      964 DT      0.0000
   1981 C5'        5.7794     5.5416  3166.5107 C.3      964 DT      0.0000
   1982 C4'        5.8983     4.2525  3165.7628 C.3      964 DT      0.0000
   1983 O4'        4.7811     3.4073  3165.7058 O.3      964 DT      0.0000
   1984 C3'        6.3780     4.3212  3164.2967 C.3      964 DT      0.0000
   1985 O3'        7.1414     3.1156  3164.1929 O.3      964 DT      0.0000
   1986 C2'        5.0503     4.2301  3163.5329 C.3      964 DT      0.0000
   1987 C1'        4.4687     3.0660  3164.3087 C.3      964 DT      0.0000
   1988 N1         3.0178     2.8877  3164.2025 N.am     964 DT      0.0000
   1989 C2         2.5744     1.5583  3164.2019 C.2      964 DT      0.0000
   1990 O2         3.3739     0.6210  3164.2449 O.2      964 DT      0.0000
   1991 N3         1.2256     1.3536  3164.1484 N.am     964 DT      0.0000
   1992 C4         0.3258     2.3760  3164.0887 C.2      964 DT      0.0000
   1993 O4        -0.9059     2.0823  3164.0263 O.2      964 DT      0.0000
   1994 C5         0.8029     3.7151  3164.0969 C.2      964 DT      0.0000
   1995 C7        -0.1857     4.8607  3164.0355 C.3      964 DT      0.0000
   1996 C6         2.1230     3.9106  3164.1634 C.2      964 DT      0.0000
   1997 H5'        6.7657     5.9891  3166.6330 H        964 DT      0.0000
   1998 H5''       5.3356     5.3585  3167.4893 H        964 DT      0.0000
   1999 H4'        6.6637     3.6831  3166.2900 H        964 DT      0.0000
   2000 H3'        6.9507     5.2200  3164.0680 H        964 DT      0.0000
   2001 H2'        5.1919     3.9981  3162.4774 H        964 DT      0.0000
   2002 H2''       4.4536     5.1327  3163.6646 H        964 DT      0.0000
   2003 H1'        4.9772     2.1431  3164.0297 H        964 DT      0.0000
   2004 H3         0.8799     0.4047  3164.1533 H        964 DT      0.0000
   2005 H6         2.4951     4.9242  3164.1871 H        964 DT      0.0000
   2006 H71       -1.1998     4.4641  3163.9867 H        964 DT      0.0000
   2007 H72        0.0115     5.4633  3163.1489 H        964 DT      0.0000
   2008 H73       -0.0802     5.4798  3164.9265 H        964 DT      0.0000
   2009 P          8.1128     2.7243  3163.0467 P.3      963 DC      0.0000
   2010 OP1        9.4321     2.2462  3163.6559 O.co2    963 DC      0.0000
   2011 OP2        8.3456     3.9789  3162.2649 O.co2    963 DC      0.0000
   2012 O5'        7.2670     1.5444  3162.3073 O.3      963 DC      0.0000
   2013 C5'        7.2198     0.2716  3163.0318 C.3      963 DC      0.0000
   2014 C4'        7.2023    -0.8083  3161.9813 C.3      963 DC      0.0000
   2015 O4'        5.9026    -1.2930  3161.7360 O.3      963 DC      0.0000
   2016 C3'        7.7603    -0.4000  3160.6169 C.3      963 DC      0.0000
   2017 O3'        8.4262    -1.4471  3159.9076 O.3      963 DC      0.0000
   2018 C2'        6.4870     0.1138  3159.9308 C.3      963 DC      0.0000
   2019 C1'        5.4158    -0.8279  3160.4773 C.3      963 DC      0.0000
   2020 N1         4.1524    -0.0627  3160.5951 N.am     963 DC      0.0000
   2021 C2         2.9668    -0.7960  3160.6124 C.2      963 DC      0.0000
   2022 O2         2.9776    -2.0327  3160.5437 O.2      963 DC      0.0000
   2023 N3         1.7969    -0.0929  3160.7156 N.2      963 DC      0.0000
   2024 C4         1.7733     1.2637  3160.7864 C.2      963 DC      0.0000
   2025 N4         0.6067     1.9043  3160.8883 N.pl3    963 DC      0.0000
   2026 C5         2.9978     1.9879  3160.7612 C.2      963 DC      0.0000
   2027 C6         4.1465     1.2965  3160.6676 C.2      963 DC      0.0000
   2028 H5'        8.0987     0.1659  3163.6678 H        963 DC      0.0000
   2029 H5''       6.3139     0.2194  3163.6357 H        963 DC      0.0000
   2030 H4'        7.8026    -1.6399  3162.3501 H        963 DC      0.0000
   2031 H3'        8.4511     0.4322  3160.7511 H        963 DC      0.0000
   2032 H2'        6.5647     0.0353  3158.8464 H        963 DC      0.0000
   2033 H2''       6.2805     1.1423  3160.2267 H        963 DC      0.0000
   2034 H1'        5.2788    -1.6692  3159.7980 H        963 DC      0.0000
   2035 H5         3.0040     3.0665  3160.8160 H        963 DC      0.0000
   2036 H6         5.0850     1.8308  3160.6495 H        963 DC      0.0000
   2037 H41       -0.2568     1.3808  3160.9090 H        963 DC      0.0000
   2038 H42        0.5874     2.9125  3160.9447 H        963 DC      0.0000
   2039 P          8.3953    -1.6789  3158.2756 P.3      962 DA      0.0000
   2040 OP1        9.6205    -2.4775  3157.8861 O.co2    962 DA      0.0000
   2041 OP2        8.3378    -0.3054  3157.7055 O.co2    962 DA      0.0000
   2042 O5'        7.1156    -2.6187  3158.1101 O.3      962 DA      0.0000
   2043 C5'        7.2217    -4.0201  3158.5755 C.3      962 DA      0.0000
   2044 C4'        6.1953    -4.7165  3157.6982 C.3      962 DA      0.0000
   2045 O4'        4.8906    -4.1867  3157.9656 O.3      962 DA      0.0000
   2046 C3'        6.4117    -4.4742  3156.1938 C.3      962 DA      0.0000
   2047 O3'        5.6979    -5.4126  3155.4048 O.3      962 DA      0.0000
   2048 C2'        5.6691    -3.1383  3156.0063 C.3      962 DA      0.0000
   2049 C1'        4.3895    -3.5916  3156.7610 C.3      962 DA      0.0000
   2050 N9         3.6003    -2.3727  3156.9064 N.ar     962 DA      0.0000
   2051 C8         4.0866    -1.0865  3156.9793 C.ar     962 DA      0.0000
   2052 N7         3.1472    -0.1816  3157.0939 N.ar     962 DA      0.0000
   2053 C5         1.9604    -0.9361  3157.0875 C.ar     962 DA      0.0000
   2054 C6         0.6000    -0.5342  3157.1875 C.ar     962 DA      0.0000
   2055 N6         0.2078     0.7372  3157.3103 N.pl3    962 DA      0.0000
   2056 N1        -0.2944    -1.5613  3157.1523 N.ar     962 DA      0.0000
   2057 C2         0.1032    -2.8517  3157.0334 C.ar     962 DA      0.0000
   2058 N3         1.3591    -3.2986  3156.9420 N.ar     962 DA      0.0000
   2059 C4         2.2323    -2.2767  3156.9695 C.ar     962 DA      0.0000
   2060 H5'        8.2222    -4.4190  3158.4087 H        962 DA      0.0000
   2061 H5''       6.9461    -4.0985  3159.6271 H        962 DA      0.0000
   2062 H4'        6.2050    -5.7872  3157.9022 H        962 DA      0.0000
   2063 H3'        7.4659    -4.4119  3155.9242 H        962 DA      0.0000
   2064 H2'        6.1728    -2.3002  3156.4880 H        962 DA      0.0000
   2065 H2''       5.4656    -2.9351  3154.9550 H        962 DA      0.0000
   2066 H1'        3.8434    -4.3289  3156.1726 H        962 DA      0.0000
   2067 H8         5.1393    -0.8477  3156.9453 H        962 DA      0.0000
   2068 H2        -0.6776    -3.5974  3157.0102 H        962 DA      0.0000
   2069 H61        0.8945     1.4774  3157.3351 H        962 DA      0.0000
   2070 H62       -0.7754     0.9580  3157.3784 H        962 DA      0.0000
   2071 P          6.4313    -6.2384  3154.2638 P.3      961 DC      0.0000
   2072 OP1        7.0441    -7.3896  3155.0441 O.co2    961 DC      0.0000
   2073 OP2        7.4263    -5.4407  3153.5382 O.co2    961 DC      0.0000
   2074 O5'        5.1587    -6.6025  3153.2880 O.3      961 DC      0.0000
   2075 C5'        4.0011    -7.2342  3153.9570 C.3      961 DC      0.0000
   2076 C4'        2.7395    -6.7230  3153.3130 C.3      961 DC      0.0000
   2077 O4'        2.1955    -5.5735  3153.9501 O.3      961 DC      0.0000
   2078 C3'        2.9336    -6.3426  3151.8351 C.3      961 DC      0.0000
   2079 O3'        1.7890    -6.5756  3151.0238 O.3      961 DC      0.0000
   2080 C2'        3.1370    -4.8009  3152.0008 C.3      961 DC      0.0000
   2081 C1'        1.8526    -4.6492  3152.8964 C.3      961 DC      0.0000
   2082 N1         1.6696    -3.2413  3153.1343 N.am     961 DC      0.0000
   2083 C2         0.4006    -2.7846  3153.4514 C.2      961 DC      0.0000
   2084 O2        -0.6535    -3.4149  3153.5919 O.2      961 DC      0.0000
   2085 N3         0.2330    -1.4421  3153.6496 N.2      961 DC      0.0000
   2086 C4         1.2698    -0.5576  3153.5336 C.2      961 DC      0.0000
   2087 N4         1.0595     0.7503  3153.7497 N.pl3    961 DC      0.0000
   2088 C5         2.5660    -1.0412  3153.2040 C.2      961 DC      0.0000
   2089 C6         2.7048    -2.3582  3153.0123 C.2      961 DC      0.0000
   2090 H5'        4.0580    -8.3170  3153.8455 H        961 DC      0.0000
   2091 H5''       4.0032    -6.9744  3155.0156 H        961 DC      0.0000
   2092 H4'        1.9938    -7.5166  3153.3597 H        961 DC      0.0000
   2093 H3'        3.8207    -6.8175  3151.4161 H        961 DC      0.0000
   2094 H2'        4.0598    -4.5383  3152.5179 H        961 DC      0.0000
   2095 H2''       3.0369    -4.2727  3151.0526 H        961 DC      0.0000
   2096 H1'        0.9904    -5.0338  3152.3515 H        961 DC      0.0000
   2097 H5         3.4073    -0.3701  3153.1119 H        961 DC      0.0000
   2098 H6         3.6799    -2.7405  3152.7491 H        961 DC      0.0000
   2099 H41        0.1357     1.0803  3153.9902 H        961 DC      0.0000
   2100 H42        1.8250     1.4046  3153.6718 H        961 DC      0.0000
@<TRIPOS>BOND
     1      9     33 1
     2     41     65 1
     3     73     97 1
     4    105    127 1
     5    135    159 1
     6    197    222 1
     7    230    254 1
     8    262    287 1
     9    295    319 1
    10    327    351 1
    11      1      2 1
    12      1      3 1
    13      1      4 1
    14      4      5 1
    15      5      6 1
    16      6      7 1
    17      6      8 1
    18      7     11 1
    19      8      9 1
    20      8     10 1
    21     10     11 1
    22     11     12 1
    23     12     13 ar
    24     12     21 ar
    25     13     14 ar
    26     14     15 ar
    27     15     16 ar
    28     15     21 ar
    29     16     17 1
    30     16     18 ar
    31     18     19 ar
    32     19     20 ar
    33     20     21 ar
    34     33     34 1
    35     33     35 1
    36     33     36 1
    37     36     37 1
    38     37     38 1
    39     38     39 1
    40     38     40 1
    41     39     43 1
    42     40     41 1
    43     40     42 1
    44     42     43 1
    45     43     44 1
    46     44     45 am
    47     44     52 1
    48     45     46 2
    49     45     47 am
    50     47     48 am
    51     48     49 2
    52     48     50 1
    53     50     51 1
    54     50     52 2
    55     65     66 1
    56     65     67 1
    57     65     68 1
    58     68     69 1
    59     69     70 1
    60     70     71 1
    61     70     72 1
    62     71     75 1
    63     72     73 1
    64     72     74 1
    65     74     75 1
    66     75     76 1
    67     76     77 am
    68     76     84 1
    69     77     78 2
    70     77     79 am
    71     79     80 am
    72     80     81 2
    73     80     82 1
    74     82     83 1
    75     82     84 2
    76     97     98 1
    77     97     99 1
    78     97    100 1
    79    100    101 1
    80    101    102 1
    81    102    103 1
    82    102    104 1
    83    103    107 1
    84    104    105 1
    85    104    106 1
    86    106    107 1
    87    107    108 1
    88    108    109 am
    89    108    115 1
    90    109    110 2
    91    109    111 1
    92    111    112 2
    93    112    113 2
    94    112    114 2
    95    114    115 2
    96    127    128 1
    97    127    129 1
    98    127    130 1
    99    130    131 1
   100    131    132 1
   101    132    133 1
   102    132    134 1
   103    133    137 1
   104    134    135 1
   105    134    136 1
   106    136    137 1
   107    137    138 1
   108    138    139 ar
   109    138    147 ar
   110    139    140 ar
   111    140    141 ar
   112    141    142 ar
   113    141    147 ar
   114    142    143 1
   115    142    144 ar
   116    144    145 ar
   117    145    146 ar
   118    146    147 ar
   119    159    160 1
   120    159    161 1
   121    159    162 1
   122    162    163 1
   123    163    164 1
   124    164    165 1
   125    164    166 1
   126    165    169 1
   127    166    167 1
   128    166    168 1
   129    168    169 1
   130    169    170 1
   131    170    171 am
   132    170    177 1
   133    171    172 2
   134    171    173 1
   135    173    174 2
   136    174    175 2
   137    174    176 2
   138    176    177 2
   139    189    190 1
   140    189    191 1
   141    189    192 1
   142    192    193 1
   143    193    194 1
   144    194    195 1
   145    194    196 1
   146    195    199 1
   147    196    197 1
   148    196    198 1
   149    198    199 1
   150    199    200 1
   151    200    201 ar
   152    200    210 ar
   153    201    202 ar
   154    202    203 ar
   155    203    204 1
   156    203    210 ar
   157    204    205 2
   158    204    206 am
   159    206    207 1
   160    207    208 2
   161    207    209 2
   162    209    210 1
   163    222    223 1
   164    222    224 1
   165    222    225 1
   166    225    226 1
   167    226    227 1
   168    227    228 1
   169    227    229 1
   170    228    232 1
   171    229    230 1
   172    229    231 1
   173    231    232 1
   174    232    233 1
   175    233    234 am
   176    233    241 1
   177    234    235 2
   178    234    236 am
   179    236    237 am
   180    237    238 2
   181    237    239 1
   182    239    240 1
   183    239    241 2
   184    254    255 1
   185    254    256 1
   186    254    257 1
   187    257    258 1
   188    258    259 1
   189    259    260 1
   190    259    261 1
   191    260    264 1
   192    261    262 1
   193    261    263 1
   194    263    264 1
   195    264    265 1
   196    265    266 ar
   197    265    275 ar
   198    266    267 ar
   199    267    268 ar
   200    268    269 1
   201    268    275 ar
   202    269    270 2
   203    269    271 am
   204    271    272 1
   205    272    273 2
   206    272    274 2
   207    274    275 1
   208    287    288 1
   209    287    289 1
   210    287    290 1
   211    290    291 1
   212    291    292 1
   213    292    293 1
   214    292    294 1
   215    293    297 1
   216    294    295 1
   217    294    296 1
   218    296    297 1
   219    297    298 1
   220    298    299 ar
   221    298    307 ar
   222    299    300 ar
   223    300    301 ar
   224    301    302 ar
   225    301    307 ar
   226    302    303 1
   227    302    304 ar
   228    304    305 ar
   229    305    306 ar
   230    306    307 ar
   231    319    320 1
   232    319    321 1
   233    319    322 1
   234    322    323 1
   235    323    324 1
   236    324    325 1
   237    324    326 1
   238    325    329 1
   239    326    327 1
   240    326    328 1
   241    328    329 1
   242    329    330 1
   243    330    331 ar
   244    330    339 ar
   245    331    332 ar
   246    332    333 ar
   247    333    334 ar
   248    333    339 ar
   249    334    335 1
   250    334    336 ar
   251    336    337 ar
   252    337    338 ar
   253    338    339 ar
   254    351    352 1
   255    351    353 1
   256    351    354 1
   257    354    355 1
   258    355    356 1
   259    356    357 1
   260    356    358 1
   261    357    361 1
   262    358    359 1
   263    358    360 1
   264    360    361 1
   265    361    362 1
   266    362    363 am
   267    362    370 1
   268    363    364 2
   269    363    365 am
   270    365    366 am
   271    366    367 2
   272    366    368 1
   273    368    369 1
   274    368    370 2
   275     22      5 1
   276     23      5 1
   277     24      6 1
   278     25      8 1
   279     26     10 1
   280     27     10 1
   281     28     11 1
   282     29     13 1
   283     30     19 1
   284     53     37 1
   285     54     37 1
   286     55     38 1
   287     56     40 1
   288     57     42 1
   289     58     42 1
   290     59     43 1
   291     60     47 1
   292     61     52 1
   293     85     69 1
   294     86     69 1
   295     87     70 1
   296     88     72 1
   297     89     74 1
   298     90     74 1
   299     91     75 1
   300     92     79 1
   301     93     84 1
   302    116    101 1
   303    117    101 1
   304    118    102 1
   305    119    104 1
   306    120    106 1
   307    121    106 1
   308    122    107 1
   309    123    114 1
   310    124    115 1
   311    148    131 1
   312    149    131 1
   313    150    132 1
   314    151    134 1
   315    152    136 1
   316    153    136 1
   317    154    137 1
   318    155    139 1
   319    156    145 1
   320    178    163 1
   321    179    163 1
   322    180    164 1
   323    181    166 1
   324    182    168 1
   325    183    168 1
   326    184    169 1
   327    185    176 1
   328    186    177 1
   329    211    193 1
   330    212    193 1
   331    213    194 1
   332    214    196 1
   333    215    198 1
   334    216    198 1
   335    217    199 1
   336    218    201 1
   337    219    206 1
   338    242    226 1
   339    243    226 1
   340    244    227 1
   341    245    229 1
   342    246    231 1
   343    247    231 1
   344    248    232 1
   345    249    236 1
   346    250    241 1
   347    276    258 1
   348    277    258 1
   349    278    259 1
   350    279    261 1
   351    280    263 1
   352    281    263 1
   353    282    264 1
   354    283    266 1
   355    284    271 1
   356    308    291 1
   357    309    291 1
   358    310    292 1
   359    311    294 1
   360    312    296 1
   361    313    296 1
   362    314    297 1
   363    315    299 1
   364    316    305 1
   365    340    323 1
   366    341    323 1
   367    342    324 1
   368    343    326 1
   369    344    328 1
   370    345    328 1
   371    346    329 1
   372    347    331 1
   373    348    337 1
   374    371    355 1
   375    372    355 1
   376    373    356 1
   377    374    358 1
   378    375    360 1
   379    376    360 1
   380    377    361 1
   381    378    365 1
   382    379    370 1
   383    125    113 1
   384    126    113 1
   385    187    175 1
   386    188    175 1
   387    220    208 1
   388    221    208 1
   389    285    273 1
   390    286    273 1
   391     31     17 1
   392     32     17 1
   393    157    143 1
   394    158    143 1
   395    317    303 1
   396    318    303 1
   397    349    335 1
   398    350    335 1
   399     62     51 1
   400     63     51 1
   401     64     51 1
   402     94     83 1
   403     95     83 1
   404     96     83 1
   405    251    240 1
   406    252    240 1
   407    253    240 1
   408    380    369 1
   409    381    369 1
   410    382    369 1
   411    167    383 1
   412    189    997 1
   413    391    416 1
   414    424    448 1
   415    456    481 1
   416    489    513 1
   417    521    545 1
   418    553    577 1
   419    585    609 1
   420    617    639 1
   421    647    671 1
   422    709    734 1
   423    742    766 1
   424    774    799 1
   425    807    831 1
   426    839    863 1
   427    871    895 1
   428    903    927 1
   429    935    957 1
   430    965    989 1
   431    383    384 1
   432    383    385 1
   433    383    386 1
   434    386    387 1
   435    387    388 1
   436    388    389 1
   437    388    390 1
   438    389    393 1
   439    390    391 1
   440    390    392 1
   441    392    393 1
   442    393    394 1
   443    394    395 ar
   444    394    404 ar
   445    395    396 ar
   446    396    397 ar
   447    397    398 1
   448    397    404 ar
   449    398    399 2
   450    398    400 am
   451    400    401 1
   452    401    402 2
   453    401    403 2
   454    403    404 1
   455    416    417 1
   456    416    418 1
   457    416    419 1
   458    419    420 1
   459    420    421 1
   460    421    422 1
   461    421    423 1
   462    422    426 1
   463    423    424 1
   464    423    425 1
   465    425    426 1
   466    426    427 1
   467    427    428 am
   468    427    435 1
   469    428    429 2
   470    428    430 am
   471    430    431 am
   472    431    432 2
   473    431    433 1
   474    433    434 1
   475    433    435 2
   476    448    449 1
   477    448    450 1
   478    448    451 1
   479    451    452 1
   480    452    453 1
   481    453    454 1
   482    453    455 1
   483    454    458 1
   484    455    456 1
   485    455    457 1
   486    457    458 1
   487    458    459 1
   488    459    460 ar
   489    459    469 ar
   490    460    461 ar
   491    461    462 ar
   492    462    463 1
   493    462    469 ar
   494    463    464 2
   495    463    465 am
   496    465    466 1
   497    466    467 2
   498    466    468 2
   499    468    469 1
   500    481    482 1
   501    481    483 1
   502    481    484 1
   503    484    485 1
   504    485    486 1
   505    486    487 1
   506    486    488 1
   507    487    491 1
   508    488    489 1
   509    488    490 1
   510    490    491 1
   511    491    492 1
   512    492    493 ar
   513    492    501 ar
   514    493    494 ar
   515    494    495 ar
   516    495    496 ar
   517    495    501 ar
   518    496    497 1
   519    496    498 ar
   520    498    499 ar
   521    499    500 ar
   522    500    501 ar
   523    513    514 1
   524    513    515 1
   525    513    516 1
   526    516    517 1
   527    517    518 1
   528    518    519 1
   529    518    520 1
   530    519    523 1
   531    520    521 1
   532    520    522 1
   533    522    523 1
   534    523    524 1
   535    524    525 ar
   536    524    533 ar
   537    525    526 ar
   538    526    527 ar
   539    527    528 ar
   540    527    533 ar
   541    528    529 1
   542    528    530 ar
   543    530    531 ar
   544    531    532 ar
   545    532    533 ar
   546    545    546 1
   547    545    547 1
   548    545    548 1
   549    548    549 1
   550    549    550 1
   551    550    551 1
   552    550    552 1
   553    551    555 1
   554    552    553 1
   555    552    554 1
   556    554    555 1
   557    555    556 1
   558    556    557 am
   559    556    564 1
   560    557    558 2
   561    557    559 am
   562    559    560 am
   563    560    561 2
   564    560    562 1
   565    562    563 1
   566    562    564 2
   567    577    578 1
   568    577    579 1
   569    577    580 1
   570    580    581 1
   571    581    582 1
   572    582    583 1
   573    582    584 1
   574    583    587 1
   575    584    585 1
   576    584    586 1
   577    586    587 1
   578    587    588 1
   579    588    589 am
   580    588    596 1
   581    589    590 2
   582    589    591 am
   583    591    592 am
   584    592    593 2
   585    592    594 1
   586    594    595 1
   587    594    596 2
   588    609    610 1
   589    609    611 1
   590    609    612 1
   591    612    613 1
   592    613    614 1
   593    614    615 1
   594    614    616 1
   595    615    619 1
   596    616    617 1
   597    616    618 1
   598    618    619 1
   599    619    620 1
   600    620    621 am
   601    620    627 1
   602    621    622 2
   603    621    623 1
   604    623    624 2
   605    624    625 2
   606    624    626 2
   607    626    627 2
   608    639    640 1
   609    639    641 1
   610    639    642 1
   611    642    643 1
   612    643    644 1
   613    644    645 1
   614    644    646 1
   615    645    649 1
   616    646    647 1
   617    646    648 1
   618    648    649 1
   619    649    650 1
   620    650    651 ar
   621    650    659 ar
   622    651    652 ar
   623    652    653 ar
   624    653    654 ar
   625    653    659 ar
   626    654    655 1
   627    654    656 ar
   628    656    657 ar
   629    657    658 ar
   630    658    659 ar
   631    671    672 1
   632    671    673 1
   633    671    674 1
   634    674    675 1
   635    675    676 1
   636    676    677 1
   637    676    678 1
   638    677    681 1
   639    678    679 1
   640    678    680 1
   641    680    681 1
   642    681    682 1
   643    682    683 am
   644    682    689 1
   645    683    684 2
   646    683    685 1
   647    685    686 2
   648    686    687 2
   649    686    688 2
   650    688    689 2
   651    701    702 1
   652    701    703 1
   653    701    704 1
   654    704    705 1
   655    705    706 1
   656    706    707 1
   657    706    708 1
   658    707    711 1
   659    708    709 1
   660    708    710 1
   661    710    711 1
   662    711    712 1
   663    712    713 ar
   664    712    722 ar
   665    713    714 ar
   666    714    715 ar
   667    715    716 1
   668    715    722 ar
   669    716    717 2
   670    716    718 am
   671    718    719 1
   672    719    720 2
   673    719    721 2
   674    721    722 1
   675    734    735 1
   676    734    736 1
   677    734    737 1
   678    737    738 1
   679    738    739 1
   680    739    740 1
   681    739    741 1
   682    740    744 1
   683    741    742 1
   684    741    743 1
   685    743    744 1
   686    744    745 1
   687    745    746 am
   688    745    753 1
   689    746    747 2
   690    746    748 am
   691    748    749 am
   692    749    750 2
   693    749    751 1
   694    751    752 1
   695    751    753 2
   696    766    767 1
   697    766    768 1
   698    766    769 1
   699    769    770 1
   700    770    771 1
   701    771    772 1
   702    771    773 1
   703    772    776 1
   704    773    774 1
   705    773    775 1
   706    775    776 1
   707    776    777 1
   708    777    778 ar
   709    777    787 ar
   710    778    779 ar
   711    779    780 ar
   712    780    781 1
   713    780    787 ar
   714    781    782 2
   715    781    783 am
   716    783    784 1
   717    784    785 2
   718    784    786 2
   719    786    787 1
   720    799    800 1
   721    799    801 1
   722    799    802 1
   723    802    803 1
   724    803    804 1
   725    804    805 1
   726    804    806 1
   727    805    809 1
   728    806    807 1
   729    806    808 1
   730    808    809 1
   731    809    810 1
   732    810    811 ar
   733    810    819 ar
   734    811    812 ar
   735    812    813 ar
   736    813    814 ar
   737    813    819 ar
   738    814    815 1
   739    814    816 ar
   740    816    817 ar
   741    817    818 ar
   742    818    819 ar
   743    831    832 1
   744    831    833 1
   745    831    834 1
   746    834    835 1
   747    835    836 1
   748    836    837 1
   749    836    838 1
   750    837    841 1
   751    838    839 1
   752    838    840 1
   753    840    841 1
   754    841    842 1
   755    842    843 ar
   756    842    851 ar
   757    843    844 ar
   758    844    845 ar
   759    845    846 ar
   760    845    851 ar
   761    846    847 1
   762    846    848 ar
   763    848    849 ar
   764    849    850 ar
   765    850    851 ar
   766    863    864 1
   767    863    865 1
   768    863    866 1
   769    866    867 1
   770    867    868 1
   771    868    869 1
   772    868    870 1
   773    869    873 1
   774    870    871 1
   775    870    872 1
   776    872    873 1
   777    873    874 1
   778    874    875 am
   779    874    882 1
   780    875    876 2
   781    875    877 am
   782    877    878 am
   783    878    879 2
   784    878    880 1
   785    880    881 1
   786    880    882 2
   787    895    896 1
   788    895    897 1
   789    895    898 1
   790    898    899 1
   791    899    900 1
   792    900    901 1
   793    900    902 1
   794    901    905 1
   795    902    903 1
   796    902    904 1
   797    904    905 1
   798    905    906 1
   799    906    907 am
   800    906    914 1
   801    907    908 2
   802    907    909 am
   803    909    910 am
   804    910    911 2
   805    910    912 1
   806    912    913 1
   807    912    914 2
   808    927    928 1
   809    927    929 1
   810    927    930 1
   811    930    931 1
   812    931    932 1
   813    932    933 1
   814    932    934 1
   815    933    937 1
   816    934    935 1
   817    934    936 1
   818    936    937 1
   819    937    938 1
   820    938    939 am
   821    938    945 1
   822    939    940 2
   823    939    941 1
   824    941    942 2
   825    942    943 2
   826    942    944 2
   827    944    945 2
   828    957    958 1
   829    957    959 1
   830    957    960 1
   831    960    961 1
   832    961    962 1
   833    962    963 1
   834    962    964 1
   835    963    967 1
   836    964    965 1
   837    964    966 1
   838    966    967 1
   839    967    968 1
   840    968    969 ar
   841    968    977 ar
   842    969    970 ar
   843    970    971 ar
   844    971    972 ar
   845    971    977 ar
   846    972    973 1
   847    972    974 ar
   848    974    975 ar
   849    975    976 ar
   850    976    977 ar
   851    989    990 1
   852    989    991 1
   853    989    992 1
   854    992    993 1
   855    993    994 1
   856    994    995 1
   857    994    996 1
   858    995    999 1
   859    996    997 1
   860    996    998 1
   861    998    999 1
   862    999   1000 1
   863   1000   1001 am
   864   1000   1007 1
   865   1001   1002 2
   866   1001   1003 1
   867   1003   1004 2
   868   1004   1005 2
   869   1004   1006 2
   870   1006   1007 2
   871    405    387 1
   872    406    387 1
   873    407    388 1
   874    408    390 1
   875    409    392 1
   876    410    392 1
   877    411    393 1
   878    412    395 1
   879    413    400 1
   880    436    420 1
   881    437    420 1
   882    438    421 1
   883    439    423 1
   884    440    425 1
   885    441    425 1
   886    442    426 1
   887    443    430 1
   888    444    435 1
   889    470    452 1
   890    471    452 1
   891    472    453 1
   892    473    455 1
   893    474    457 1
   894    475    457 1
   895    476    458 1
   896    477    460 1
   897    478    465 1
   898    502    485 1
   899    503    485 1
   900    504    486 1
   901    505    488 1
   902    506    490 1
   903    507    490 1
   904    508    491 1
   905    509    493 1
   906    510    499 1
   907    534    517 1
   908    535    517 1
   909    536    518 1
   910    537    520 1
   911    538    522 1
   912    539    522 1
   913    540    523 1
   914    541    525 1
   915    542    531 1
   916    565    549 1
   917    566    549 1
   918    567    550 1
   919    568    552 1
   920    569    554 1
   921    570    554 1
   922    571    555 1
   923    572    559 1
   924    573    564 1
   925    597    581 1
   926    598    581 1
   927    599    582 1
   928    600    584 1
   929    601    586 1
   930    602    586 1
   931    603    587 1
   932    604    591 1
   933    605    596 1
   934    628    613 1
   935    629    613 1
   936    630    614 1
   937    631    616 1
   938    632    618 1
   939    633    618 1
   940    634    619 1
   941    635    626 1
   942    636    627 1
   943    660    643 1
   944    661    643 1
   945    662    644 1
   946    663    646 1
   947    664    648 1
   948    665    648 1
   949    666    649 1
   950    667    651 1
   951    668    657 1
   952    690    675 1
   953    691    675 1
   954    692    676 1
   955    693    678 1
   956    694    680 1
   957    695    680 1
   958    696    681 1
   959    697    688 1
   960    698    689 1
   961    723    705 1
   962    724    705 1
   963    725    706 1
   964    726    708 1
   965    727    710 1
   966    728    710 1
   967    729    711 1
   968    730    713 1
   969    731    718 1
   970    754    738 1
   971    755    738 1
   972    756    739 1
   973    757    741 1
   974    758    743 1
   975    759    743 1
   976    760    744 1
   977    761    748 1
   978    762    753 1
   979    788    770 1
   980    789    770 1
   981    790    771 1
   982    791    773 1
   983    792    775 1
   984    793    775 1
   985    794    776 1
   986    795    778 1
   987    796    783 1
   988    820    803 1
   989    821    803 1
   990    822    804 1
   991    823    806 1
   992    824    808 1
   993    825    808 1
   994    826    809 1
   995    827    811 1
   996    828    817 1
   997    852    835 1
   998    853    835 1
   999    854    836 1
  1000    855    838 1
  1001    856    840 1
  1002    857    840 1
  1003    858    841 1
  1004    859    843 1
  1005    860    849 1
  1006    883    867 1
  1007    884    867 1
  1008    885    868 1
  1009    886    870 1
  1010    887    872 1
  1011    888    872 1
  1012    889    873 1
  1013    890    877 1
  1014    891    882 1
  1015    915    899 1
  1016    916    899 1
  1017    917    900 1
  1018    918    902 1
  1019    919    904 1
  1020    920    904 1
  1021    921    905 1
  1022    922    909 1
  1023    923    914 1
  1024    946    931 1
  1025    947    931 1
  1026    948    932 1
  1027    949    934 1
  1028    950    936 1
  1029    951    936 1
  1030    952    937 1
  1031    953    944 1
  1032    954    945 1
  1033    978    961 1
  1034    979    961 1
  1035    980    962 1
  1036    981    964 1
  1037    982    966 1
  1038    983    966 1
  1039    984    967 1
  1040    985    969 1
  1041    986    975 1
  1042   1008    993 1
  1043   1009    993 1
  1044   1010    994 1
  1045   1011    996 1
  1046   1012    998 1
  1047   1013    998 1
  1048   1014    999 1
  1049   1015   1006 1
  1050   1016   1007 1
  1051    414    402 1
  1052    415    402 1
  1053    479    467 1
  1054    480    467 1
  1055    637    625 1
  1056    638    625 1
  1057    699    687 1
  1058    700    687 1
  1059    732    720 1
  1060    733    720 1
  1061    797    785 1
  1062    798    785 1
  1063    955    943 1
  1064    956    943 1
  1065   1017   1005 1
  1066   1018   1005 1
  1067    511    497 1
  1068    512    497 1
  1069    543    529 1
  1070    544    529 1
  1071    669    655 1
  1072    670    655 1
  1073    829    815 1
  1074    830    815 1
  1075    861    847 1
  1076    862    847 1
  1077    987    973 1
  1078    988    973 1
  1079    445    434 1
  1080    446    434 1
  1081    447    434 1
  1082    574    563 1
  1083    575    563 1
  1084    576    563 1
  1085    606    595 1
  1086    607    595 1
  1087    608    595 1
  1088    763    752 1
  1089    764    752 1
  1090    765    752 1
  1091    892    881 1
  1092    893    881 1
  1093    894    881 1
  1094    924    913 1
  1095    925    913 1
  1096    926    913 1
  1097    679   1019 1
  1098    701   1633 1
  1099   1027   1052 1
  1100   1060   1084 1
  1101   1092   1117 1
  1102   1125   1149 1
  1103   1157   1181 1
  1104   1189   1213 1
  1105   1221   1245 1
  1106   1253   1275 1
  1107   1283   1307 1
  1108   1345   1370 1
  1109   1378   1402 1
  1110   1410   1435 1
  1111   1443   1467 1
  1112   1475   1499 1
  1113   1507   1531 1
  1114   1539   1563 1
  1115   1571   1593 1
  1116   1601   1625 1
  1117   1019   1020 1
  1118   1019   1021 1
  1119   1019   1022 1
  1120   1022   1023 1
  1121   1023   1024 1
  1122   1024   1025 1
  1123   1024   1026 1
  1124   1025   1029 1
  1125   1026   1027 1
  1126   1026   1028 1
  1127   1028   1029 1
  1128   1029   1030 1
  1129   1030   1031 ar
  1130   1030   1040 ar
  1131   1031   1032 ar
  1132   1032   1033 ar
  1133   1033   1034 1
  1134   1033   1040 ar
  1135   1034   1035 2
  1136   1034   1036 am
  1137   1036   1037 1
  1138   1037   1038 2
  1139   1037   1039 2
  1140   1039   1040 1
  1141   1052   1053 1
  1142   1052   1054 1
  1143   1052   1055 1
  1144   1055   1056 1
  1145   1056   1057 1
  1146   1057   1058 1
  1147   1057   1059 1
  1148   1058   1062 1
  1149   1059   1060 1
  1150   1059   1061 1
  1151   1061   1062 1
  1152   1062   1063 1
  1153   1063   1064 am
  1154   1063   1071 1
  1155   1064   1065 2
  1156   1064   1066 am
  1157   1066   1067 am
  1158   1067   1068 2
  1159   1067   1069 1
  1160   1069   1070 1
  1161   1069   1071 2
  1162   1084   1085 1
  1163   1084   1086 1
  1164   1084   1087 1
  1165   1087   1088 1
  1166   1088   1089 1
  1167   1089   1090 1
  1168   1089   1091 1
  1169   1090   1094 1
  1170   1091   1092 1
  1171   1091   1093 1
  1172   1093   1094 1
  1173   1094   1095 1
  1174   1095   1096 ar
  1175   1095   1105 ar
  1176   1096   1097 ar
  1177   1097   1098 ar
  1178   1098   1099 1
  1179   1098   1105 ar
  1180   1099   1100 2
  1181   1099   1101 am
  1182   1101   1102 1
  1183   1102   1103 2
  1184   1102   1104 2
  1185   1104   1105 1
  1186   1117   1118 1
  1187   1117   1119 1
  1188   1117   1120 1
  1189   1120   1121 1
  1190   1121   1122 1
  1191   1122   1123 1
  1192   1122   1124 1
  1193   1123   1127 1
  1194   1124   1125 1
  1195   1124   1126 1
  1196   1126   1127 1
  1197   1127   1128 1
  1198   1128   1129 ar
  1199   1128   1137 ar
  1200   1129   1130 ar
  1201   1130   1131 ar
  1202   1131   1132 ar
  1203   1131   1137 ar
  1204   1132   1133 1
  1205   1132   1134 ar
  1206   1134   1135 ar
  1207   1135   1136 ar
  1208   1136   1137 ar
  1209   1149   1150 1
  1210   1149   1151 1
  1211   1149   1152 1
  1212   1152   1153 1
  1213   1153   1154 1
  1214   1154   1155 1
  1215   1154   1156 1
  1216   1155   1159 1
  1217   1156   1157 1
  1218   1156   1158 1
  1219   1158   1159 1
  1220   1159   1160 1
  1221   1160   1161 ar
  1222   1160   1169 ar
  1223   1161   1162 ar
  1224   1162   1163 ar
  1225   1163   1164 ar
  1226   1163   1169 ar
  1227   1164   1165 1
  1228   1164   1166 ar
  1229   1166   1167 ar
  1230   1167   1168 ar
  1231   1168   1169 ar
  1232   1181   1182 1
  1233   1181   1183 1
  1234   1181   1184 1
  1235   1184   1185 1
  1236   1185   1186 1
  1237   1186   1187 1
  1238   1186   1188 1
  1239   1187   1191 1
  1240   1188   1189 1
  1241   1188   1190 1
  1242   1190   1191 1
  1243   1191   1192 1
  1244   1192   1193 am
  1245   1192   1200 1
  1246   1193   1194 2
  1247   1193   1195 am
  1248   1195   1196 am
  1249   1196   1197 2
  1250   1196   1198 1
  1251   1198   1199 1
  1252   1198   1200 2
  1253   1213   1214 1
  1254   1213   1215 1
  1255   1213   1216 1
  1256   1216   1217 1
  1257   1217   1218 1
  1258   1218   1219 1
  1259   1218   1220 1
  1260   1219   1223 1
  1261   1220   1221 1
  1262   1220   1222 1
  1263   1222   1223 1
  1264   1223   1224 1
  1265   1224   1225 am
  1266   1224   1232 1
  1267   1225   1226 2
  1268   1225   1227 am
  1269   1227   1228 am
  1270   1228   1229 2
  1271   1228   1230 1
  1272   1230   1231 1
  1273   1230   1232 2
  1274   1245   1246 1
  1275   1245   1247 1
  1276   1245   1248 1
  1277   1248   1249 1
  1278   1249   1250 1
  1279   1250   1251 1
  1280   1250   1252 1
  1281   1251   1255 1
  1282   1252   1253 1
  1283   1252   1254 1
  1284   1254   1255 1
  1285   1255   1256 1
  1286   1256   1257 am
  1287   1256   1263 1
  1288   1257   1258 2
  1289   1257   1259 1
  1290   1259   1260 2
  1291   1260   1261 2
  1292   1260   1262 2
  1293   1262   1263 2
  1294   1275   1276 1
  1295   1275   1277 1
  1296   1275   1278 1
  1297   1278   1279 1
  1298   1279   1280 1
  1299   1280   1281 1
  1300   1280   1282 1
  1301   1281   1285 1
  1302   1282   1283 1
  1303   1282   1284 1
  1304   1284   1285 1
  1305   1285   1286 1
  1306   1286   1287 ar
  1307   1286   1295 ar
  1308   1287   1288 ar
  1309   1288   1289 ar
  1310   1289   1290 ar
  1311   1289   1295 ar
  1312   1290   1291 1
  1313   1290   1292 ar
  1314   1292   1293 ar
  1315   1293   1294 ar
  1316   1294   1295 ar
  1317   1307   1308 1
  1318   1307   1309 1
  1319   1307   1310 1
  1320   1310   1311 1
  1321   1311   1312 1
  1322   1312   1313 1
  1323   1312   1314 1
  1324   1313   1317 1
  1325   1314   1315 1
  1326   1314   1316 1
  1327   1316   1317 1
  1328   1317   1318 1
  1329   1318   1319 am
  1330   1318   1325 1
  1331   1319   1320 2
  1332   1319   1321 1
  1333   1321   1322 2
  1334   1322   1323 2
  1335   1322   1324 2
  1336   1324   1325 2
  1337   1337   1338 1
  1338   1337   1339 1
  1339   1337   1340 1
  1340   1340   1341 1
  1341   1341   1342 1
  1342   1342   1343 1
  1343   1342   1344 1
  1344   1343   1347 1
  1345   1344   1345 1
  1346   1344   1346 1
  1347   1346   1347 1
  1348   1347   1348 1
  1349   1348   1349 ar
  1350   1348   1358 ar
  1351   1349   1350 ar
  1352   1350   1351 ar
  1353   1351   1352 1
  1354   1351   1358 ar
  1355   1352   1353 2
  1356   1352   1354 am
  1357   1354   1355 1
  1358   1355   1356 2
  1359   1355   1357 2
  1360   1357   1358 1
  1361   1370   1371 1
  1362   1370   1372 1
  1363   1370   1373 1
  1364   1373   1374 1
  1365   1374   1375 1
  1366   1375   1376 1
  1367   1375   1377 1
  1368   1376   1380 1
  1369   1377   1378 1
  1370   1377   1379 1
  1371   1379   1380 1
  1372   1380   1381 1
  1373   1381   1382 am
  1374   1381   1389 1
  1375   1382   1383 2
  1376   1382   1384 am
  1377   1384   1385 am
  1378   1385   1386 2
  1379   1385   1387 1
  1380   1387   1388 1
  1381   1387   1389 2
  1382   1402   1403 1
  1383   1402   1404 1
  1384   1402   1405 1
  1385   1405   1406 1
  1386   1406   1407 1
  1387   1407   1408 1
  1388   1407   1409 1
  1389   1408   1412 1
  1390   1409   1410 1
  1391   1409   1411 1
  1392   1411   1412 1
  1393   1412   1413 1
  1394   1413   1414 ar
  1395   1413   1423 ar
  1396   1414   1415 ar
  1397   1415   1416 ar
  1398   1416   1417 1
  1399   1416   1423 ar
  1400   1417   1418 2
  1401   1417   1419 am
  1402   1419   1420 1
  1403   1420   1421 2
  1404   1420   1422 2
  1405   1422   1423 1
  1406   1435   1436 1
  1407   1435   1437 1
  1408   1435   1438 1
  1409   1438   1439 1
  1410   1439   1440 1
  1411   1440   1441 1
  1412   1440   1442 1
  1413   1441   1445 1
  1414   1442   1443 1
  1415   1442   1444 1
  1416   1444   1445 1
  1417   1445   1446 1
  1418   1446   1447 ar
  1419   1446   1455 ar
  1420   1447   1448 ar
  1421   1448   1449 ar
  1422   1449   1450 ar
  1423   1449   1455 ar
  1424   1450   1451 1
  1425   1450   1452 ar
  1426   1452   1453 ar
  1427   1453   1454 ar
  1428   1454   1455 ar
  1429   1467   1468 1
  1430   1467   1469 1
  1431   1467   1470 1
  1432   1470   1471 1
  1433   1471   1472 1
  1434   1472   1473 1
  1435   1472   1474 1
  1436   1473   1477 1
  1437   1474   1475 1
  1438   1474   1476 1
  1439   1476   1477 1
  1440   1477   1478 1
  1441   1478   1479 ar
  1442   1478   1487 ar
  1443   1479   1480 ar
  1444   1480   1481 ar
  1445   1481   1482 ar
  1446   1481   1487 ar
  1447   1482   1483 1
  1448   1482   1484 ar
  1449   1484   1485 ar
  1450   1485   1486 ar
  1451   1486   1487 ar
  1452   1499   1500 1
  1453   1499   1501 1
  1454   1499   1502 1
  1455   1502   1503 1
  1456   1503   1504 1
  1457   1504   1505 1
  1458   1504   1506 1
  1459   1505   1509 1
  1460   1506   1507 1
  1461   1506   1508 1
  1462   1508   1509 1
  1463   1509   1510 1
  1464   1510   1511 am
  1465   1510   1518 1
  1466   1511   1512 2
  1467   1511   1513 am
  1468   1513   1514 am
  1469   1514   1515 2
  1470   1514   1516 1
  1471   1516   1517 1
  1472   1516   1518 2
  1473   1531   1532 1
  1474   1531   1533 1
  1475   1531   1534 1
  1476   1534   1535 1
  1477   1535   1536 1
  1478   1536   1537 1
  1479   1536   1538 1
  1480   1537   1541 1
  1481   1538   1539 1
  1482   1538   1540 1
  1483   1540   1541 1
  1484   1541   1542 1
  1485   1542   1543 am
  1486   1542   1550 1
  1487   1543   1544 2
  1488   1543   1545 am
  1489   1545   1546 am
  1490   1546   1547 2
  1491   1546   1548 1
  1492   1548   1549 1
  1493   1548   1550 2
  1494   1563   1564 1
  1495   1563   1565 1
  1496   1563   1566 1
  1497   1566   1567 1
  1498   1567   1568 1
  1499   1568   1569 1
  1500   1568   1570 1
  1501   1569   1573 1
  1502   1570   1571 1
  1503   1570   1572 1
  1504   1572   1573 1
  1505   1573   1574 1
  1506   1574   1575 am
  1507   1574   1581 1
  1508   1575   1576 2
  1509   1575   1577 1
  1510   1577   1578 2
  1511   1578   1579 2
  1512   1578   1580 2
  1513   1580   1581 2
  1514   1593   1594 1
  1515   1593   1595 1
  1516   1593   1596 1
  1517   1596   1597 1
  1518   1597   1598 1
  1519   1598   1599 1
  1520   1598   1600 1
  1521   1599   1603 1
  1522   1600   1601 1
  1523   1600   1602 1
  1524   1602   1603 1
  1525   1603   1604 1
  1526   1604   1605 ar
  1527   1604   1613 ar
  1528   1605   1606 ar
  1529   1606   1607 ar
  1530   1607   1608 ar
  1531   1607   1613 ar
  1532   1608   1609 1
  1533   1608   1610 ar
  1534   1610   1611 ar
  1535   1611   1612 ar
  1536   1612   1613 ar
  1537   1625   1626 1
  1538   1625   1627 1
  1539   1625   1628 1
  1540   1628   1629 1
  1541   1629   1630 1
  1542   1630   1631 1
  1543   1630   1632 1
  1544   1631   1635 1
  1545   1632   1633 1
  1546   1632   1634 1
  1547   1634   1635 1
  1548   1635   1636 1
  1549   1636   1637 am
  1550   1636   1643 1
  1551   1637   1638 2
  1552   1637   1639 1
  1553   1639   1640 2
  1554   1640   1641 2
  1555   1640   1642 2
  1556   1642   1643 2
  1557   1041   1023 1
  1558   1042   1023 1
  1559   1043   1024 1
  1560   1044   1026 1
  1561   1045   1028 1
  1562   1046   1028 1
  1563   1047   1029 1
  1564   1048   1031 1
  1565   1049   1036 1
  1566   1072   1056 1
  1567   1073   1056 1
  1568   1074   1057 1
  1569   1075   1059 1
  1570   1076   1061 1
  1571   1077   1061 1
  1572   1078   1062 1
  1573   1079   1066 1
  1574   1080   1071 1
  1575   1106   1088 1
  1576   1107   1088 1
  1577   1108   1089 1
  1578   1109   1091 1
  1579   1110   1093 1
  1580   1111   1093 1
  1581   1112   1094 1
  1582   1113   1096 1
  1583   1114   1101 1
  1584   1138   1121 1
  1585   1139   1121 1
  1586   1140   1122 1
  1587   1141   1124 1
  1588   1142   1126 1
  1589   1143   1126 1
  1590   1144   1127 1
  1591   1145   1129 1
  1592   1146   1135 1
  1593   1170   1153 1
  1594   1171   1153 1
  1595   1172   1154 1
  1596   1173   1156 1
  1597   1174   1158 1
  1598   1175   1158 1
  1599   1176   1159 1
  1600   1177   1161 1
  1601   1178   1167 1
  1602   1201   1185 1
  1603   1202   1185 1
  1604   1203   1186 1
  1605   1204   1188 1
  1606   1205   1190 1
  1607   1206   1190 1
  1608   1207   1191 1
  1609   1208   1195 1
  1610   1209   1200 1
  1611   1233   1217 1
  1612   1234   1217 1
  1613   1235   1218 1
  1614   1236   1220 1
  1615   1237   1222 1
  1616   1238   1222 1
  1617   1239   1223 1
  1618   1240   1227 1
  1619   1241   1232 1
  1620   1264   1249 1
  1621   1265   1249 1
  1622   1266   1250 1
  1623   1267   1252 1
  1624   1268   1254 1
  1625   1269   1254 1
  1626   1270   1255 1
  1627   1271   1262 1
  1628   1272   1263 1
  1629   1296   1279 1
  1630   1297   1279 1
  1631   1298   1280 1
  1632   1299   1282 1
  1633   1300   1284 1
  1634   1301   1284 1
  1635   1302   1285 1
  1636   1303   1287 1
  1637   1304   1293 1
  1638   1326   1311 1
  1639   1327   1311 1
  1640   1328   1312 1
  1641   1329   1314 1
  1642   1330   1316 1
  1643   1331   1316 1
  1644   1332   1317 1
  1645   1333   1324 1
  1646   1334   1325 1
  1647   1359   1341 1
  1648   1360   1341 1
  1649   1361   1342 1
  1650   1362   1344 1
  1651   1363   1346 1
  1652   1364   1346 1
  1653   1365   1347 1
  1654   1366   1349 1
  1655   1367   1354 1
  1656   1390   1374 1
  1657   1391   1374 1
  1658   1392   1375 1
  1659   1393   1377 1
  1660   1394   1379 1
  1661   1395   1379 1
  1662   1396   1380 1
  1663   1397   1384 1
  1664   1398   1389 1
  1665   1424   1406 1
  1666   1425   1406 1
  1667   1426   1407 1
  1668   1427   1409 1
  1669   1428   1411 1
  1670   1429   1411 1
  1671   1430   1412 1
  1672   1431   1414 1
  1673   1432   1419 1
  1674   1456   1439 1
  1675   1457   1439 1
  1676   1458   1440 1
  1677   1459   1442 1
  1678   1460   1444 1
  1679   1461   1444 1
  1680   1462   1445 1
  1681   1463   1447 1
  1682   1464   1453 1
  1683   1488   1471 1
  1684   1489   1471 1
  1685   1490   1472 1
  1686   1491   1474 1
  1687   1492   1476 1
  1688   1493   1476 1
  1689   1494   1477 1
  1690   1495   1479 1
  1691   1496   1485 1
  1692   1519   1503 1
  1693   1520   1503 1
  1694   1521   1504 1
  1695   1522   1506 1
  1696   1523   1508 1
  1697   1524   1508 1
  1698   1525   1509 1
  1699   1526   1513 1
  1700   1527   1518 1
  1701   1551   1535 1
  1702   1552   1535 1
  1703   1553   1536 1
  1704   1554   1538 1
  1705   1555   1540 1
  1706   1556   1540 1
  1707   1557   1541 1
  1708   1558   1545 1
  1709   1559   1550 1
  1710   1582   1567 1
  1711   1583   1567 1
  1712   1584   1568 1
  1713   1585   1570 1
  1714   1586   1572 1
  1715   1587   1572 1
  1716   1588   1573 1
  1717   1589   1580 1
  1718   1590   1581 1
  1719   1614   1597 1
  1720   1615   1597 1
  1721   1616   1598 1
  1722   1617   1600 1
  1723   1618   1602 1
  1724   1619   1602 1
  1725   1620   1603 1
  1726   1621   1605 1
  1727   1622   1611 1
  1728   1644   1629 1
  1729   1645   1629 1
  1730   1646   1630 1
  1731   1647   1632 1
  1732   1648   1634 1
  1733   1649   1634 1
  1734   1650   1635 1
  1735   1651   1642 1
  1736   1652   1643 1
  1737   1050   1038 1
  1738   1051   1038 1
  1739   1115   1103 1
  1740   1116   1103 1
  1741   1273   1261 1
  1742   1274   1261 1
  1743   1335   1323 1
  1744   1336   1323 1
  1745   1368   1356 1
  1746   1369   1356 1
  1747   1433   1421 1
  1748   1434   1421 1
  1749   1591   1579 1
  1750   1592   1579 1
  1751   1653   1641 1
  1752   1654   1641 1
  1753   1147   1133 1
  1754   1148   1133 1
  1755   1179   1165 1
  1756   1180   1165 1
  1757   1305   1291 1
  1758   1306   1291 1
  1759   1465   1451 1
  1760   1466   1451 1
  1761   1497   1483 1
  1762   1498   1483 1
  1763   1623   1609 1
  1764   1624   1609 1
  1765   1081   1070 1
  1766   1082   1070 1
  1767   1083   1070 1
  1768   1210   1199 1
  1769   1211   1199 1
  1770   1212   1199 1
  1771   1242   1231 1
  1772   1243   1231 1
  1773   1244   1231 1
  1774   1399   1388 1
  1775   1400   1388 1
  1776   1401   1388 1
  1777   1528   1517 1
  1778   1529   1517 1
  1779   1530   1517 1
  1780   1560   1549 1
  1781   1561   1549 1
  1782   1562   1549 1
  1783   1315   1655 1
  1784   1337   2079 1
  1785   1663   1688 1
  1786   1696   1720 1
  1787   1728   1753 1
  1788   1761   1785 1
  1789   1793   1817 1
  1790   1825   1849 1
  1791   1889   1913 1
  1792   1921   1945 1
  1793   1953   1977 1
  1794   1985   2009 1
  1795   2017   2039 1
  1796   2047   2071 1
  1797   1655   1656 1
  1798   1655   1657 1
  1799   1655   1658 1
  1800   1658   1659 1
  1801   1659   1660 1
  1802   1660   1661 1
  1803   1660   1662 1
  1804   1661   1665 1
  1805   1662   1663 1
  1806   1662   1664 1
  1807   1664   1665 1
  1808   1665   1666 1
  1809   1666   1667 ar
  1810   1666   1676 ar
  1811   1667   1668 ar
  1812   1668   1669 ar
  1813   1669   1670 1
  1814   1669   1676 ar
  1815   1670   1671 2
  1816   1670   1672 am
  1817   1672   1673 1
  1818   1673   1674 2
  1819   1673   1675 2
  1820   1675   1676 1
  1821   1688   1689 1
  1822   1688   1690 1
  1823   1688   1691 1
  1824   1691   1692 1
  1825   1692   1693 1
  1826   1693   1694 1
  1827   1693   1695 1
  1828   1694   1698 1
  1829   1695   1696 1
  1830   1695   1697 1
  1831   1697   1698 1
  1832   1698   1699 1
  1833   1699   1700 am
  1834   1699   1707 1
  1835   1700   1701 2
  1836   1700   1702 am
  1837   1702   1703 am
  1838   1703   1704 2
  1839   1703   1705 1
  1840   1705   1706 1
  1841   1705   1707 2
  1842   1720   1721 1
  1843   1720   1722 1
  1844   1720   1723 1
  1845   1723   1724 1
  1846   1724   1725 1
  1847   1725   1726 1
  1848   1725   1727 1
  1849   1726   1730 1
  1850   1727   1728 1
  1851   1727   1729 1
  1852   1729   1730 1
  1853   1730   1731 1
  1854   1731   1732 ar
  1855   1731   1741 ar
  1856   1732   1733 ar
  1857   1733   1734 ar
  1858   1734   1735 1
  1859   1734   1741 ar
  1860   1735   1736 2
  1861   1735   1737 am
  1862   1737   1738 1
  1863   1738   1739 2
  1864   1738   1740 2
  1865   1740   1741 1
  1866   1753   1754 1
  1867   1753   1755 1
  1868   1753   1756 1
  1869   1756   1757 1
  1870   1757   1758 1
  1871   1758   1759 1
  1872   1758   1760 1
  1873   1759   1763 1
  1874   1760   1761 1
  1875   1760   1762 1
  1876   1762   1763 1
  1877   1763   1764 1
  1878   1764   1765 ar
  1879   1764   1773 ar
  1880   1765   1766 ar
  1881   1766   1767 ar
  1882   1767   1768 ar
  1883   1767   1773 ar
  1884   1768   1769 1
  1885   1768   1770 ar
  1886   1770   1771 ar
  1887   1771   1772 ar
  1888   1772   1773 ar
  1889   1785   1786 1
  1890   1785   1787 1
  1891   1785   1788 1
  1892   1788   1789 1
  1893   1789   1790 1
  1894   1790   1791 1
  1895   1790   1792 1
  1896   1791   1795 1
  1897   1792   1793 1
  1898   1792   1794 1
  1899   1794   1795 1
  1900   1795   1796 1
  1901   1796   1797 ar
  1902   1796   1805 ar
  1903   1797   1798 ar
  1904   1798   1799 ar
  1905   1799   1800 ar
  1906   1799   1805 ar
  1907   1800   1801 1
  1908   1800   1802 ar
  1909   1802   1803 ar
  1910   1803   1804 ar
  1911   1804   1805 ar
  1912   1817   1818 1
  1913   1817   1819 1
  1914   1817   1820 1
  1915   1820   1821 1
  1916   1821   1822 1
  1917   1822   1823 1
  1918   1822   1824 1
  1919   1823   1827 1
  1920   1824   1825 1
  1921   1824   1826 1
  1922   1826   1827 1
  1923   1827   1828 1
  1924   1828   1829 am
  1925   1828   1836 1
  1926   1829   1830 2
  1927   1829   1831 am
  1928   1831   1832 am
  1929   1832   1833 2
  1930   1832   1834 1
  1931   1834   1835 1
  1932   1834   1836 2
  1933   1849   1850 1
  1934   1849   1851 1
  1935   1849   1852 1
  1936   1852   1853 1
  1937   1853   1854 1
  1938   1854   1855 1
  1939   1854   1856 1
  1940   1855   1859 1
  1941   1856   1857 1
  1942   1856   1858 1
  1943   1858   1859 1
  1944   1859   1860 1
  1945   1860   1861 am
  1946   1860   1868 1
  1947   1861   1862 2
  1948   1861   1863 am
  1949   1863   1864 am
  1950   1864   1865 2
  1951   1864   1866 1
  1952   1866   1867 1
  1953   1866   1868 2
  1954   1881   1882 1
  1955   1881   1883 1
  1956   1881   1884 1
  1957   1884   1885 1
  1958   1885   1886 1
  1959   1886   1887 1
  1960   1886   1888 1
  1961   1887   1891 1
  1962   1888   1889 1
  1963   1888   1890 1
  1964   1890   1891 1
  1965   1891   1892 1
  1966   1892   1893 ar
  1967   1892   1901 ar
  1968   1893   1894 ar
  1969   1894   1895 ar
  1970   1895   1896 ar
  1971   1895   1901 ar
  1972   1896   1897 1
  1973   1896   1898 ar
  1974   1898   1899 ar
  1975   1899   1900 ar
  1976   1900   1901 ar
  1977   1913   1914 1
  1978   1913   1915 1
  1979   1913   1916 1
  1980   1916   1917 1
  1981   1917   1918 1
  1982   1918   1919 1
  1983   1918   1920 1
  1984   1919   1923 1
  1985   1920   1921 1
  1986   1920   1922 1
  1987   1922   1923 1
  1988   1923   1924 1
  1989   1924   1925 ar
  1990   1924   1933 ar
  1991   1925   1926 ar
  1992   1926   1927 ar
  1993   1927   1928 ar
  1994   1927   1933 ar
  1995   1928   1929 1
  1996   1928   1930 ar
  1997   1930   1931 ar
  1998   1931   1932 ar
  1999   1932   1933 ar
  2000   1945   1946 1
  2001   1945   1947 1
  2002   1945   1948 1
  2003   1948   1949 1
  2004   1949   1950 1
  2005   1950   1951 1
  2006   1950   1952 1
  2007   1951   1955 1
  2008   1952   1953 1
  2009   1952   1954 1
  2010   1954   1955 1
  2011   1955   1956 1
  2012   1956   1957 am
  2013   1956   1964 1
  2014   1957   1958 2
  2015   1957   1959 am
  2016   1959   1960 am
  2017   1960   1961 2
  2018   1960   1962 1
  2019   1962   1963 1
  2020   1962   1964 2
  2021   1977   1978 1
  2022   1977   1979 1
  2023   1977   1980 1
  2024   1980   1981 1
  2025   1981   1982 1
  2026   1982   1983 1
  2027   1982   1984 1
  2028   1983   1987 1
  2029   1984   1985 1
  2030   1984   1986 1
  2031   1986   1987 1
  2032   1987   1988 1
  2033   1988   1989 am
  2034   1988   1996 1
  2035   1989   1990 2
  2036   1989   1991 am
  2037   1991   1992 am
  2038   1992   1993 2
  2039   1992   1994 1
  2040   1994   1995 1
  2041   1994   1996 2
  2042   2009   2010 1
  2043   2009   2011 1
  2044   2009   2012 1
  2045   2012   2013 1
  2046   2013   2014 1
  2047   2014   2015 1
  2048   2014   2016 1
  2049   2015   2019 1
  2050   2016   2017 1
  2051   2016   2018 1
  2052   2018   2019 1
  2053   2019   2020 1
  2054   2020   2021 am
  2055   2020   2027 1
  2056   2021   2022 2
  2057   2021   2023 1
  2058   2023   2024 2
  2059   2024   2025 2
  2060   2024   2026 2
  2061   2026   2027 2
  2062   2039   2040 1
  2063   2039   2041 1
  2064   2039   2042 1
  2065   2042   2043 1
  2066   2043   2044 1
  2067   2044   2045 1
  2068   2044   2046 1
  2069   2045   2049 1
  2070   2046   2047 1
  2071   2046   2048 1
  2072   2048   2049 1
  2073   2049   2050 1
  2074   2050   2051 ar
  2075   2050   2059 ar
  2076   2051   2052 ar
  2077   2052   2053 ar
  2078   2053   2054 ar
  2079   2053   2059 ar
  2080   2054   2055 1
  2081   2054   2056 ar
  2082   2056   2057 ar
  2083   2057   2058 ar
  2084   2058   2059 ar
  2085   2071   2072 1
  2086   2071   2073 1
  2087   2071   2074 1
  2088   2074   2075 1
  2089   2075   2076 1
  2090   2076   2077 1
  2091   2076   2078 1
  2092   2077   2081 1
  2093   2078   2079 1
  2094   2078   2080 1
  2095   2080   2081 1
  2096   2081   2082 1
  2097   2082   2083 am
  2098   2082   2089 1
  2099   2083   2084 2
  2100   2083   2085 1
  2101   2085   2086 2
  2102   2086   2087 2
  2103   2086   2088 2
  2104   2088   2089 2
  2105   1677   1659 1
  2106   1678   1659 1
  2107   1679   1660 1
  2108   1680   1662 1
  2109   1681   1664 1
  2110   1682   1664 1
  2111   1683   1665 1
  2112   1684   1667 1
  2113   1685   1672 1
  2114   1708   1692 1
  2115   1709   1692 1
  2116   1710   1693 1
  2117   1711   1695 1
  2118   1712   1697 1
  2119   1713   1697 1
  2120   1714   1698 1
  2121   1715   1702 1
  2122   1716   1707 1
  2123   1742   1724 1
  2124   1743   1724 1
  2125   1744   1725 1
  2126   1745   1727 1
  2127   1746   1729 1
  2128   1747   1729 1
  2129   1748   1730 1
  2130   1749   1732 1
  2131   1750   1737 1
  2132   1774   1757 1
  2133   1775   1757 1
  2134   1776   1758 1
  2135   1777   1760 1
  2136   1778   1762 1
  2137   1779   1762 1
  2138   1780   1763 1
  2139   1781   1765 1
  2140   1782   1771 1
  2141   1806   1789 1
  2142   1807   1789 1
  2143   1808   1790 1
  2144   1809   1792 1
  2145   1810   1794 1
  2146   1811   1794 1
  2147   1812   1795 1
  2148   1813   1797 1
  2149   1814   1803 1
  2150   1837   1821 1
  2151   1838   1821 1
  2152   1839   1822 1
  2153   1840   1824 1
  2154   1841   1826 1
  2155   1842   1826 1
  2156   1843   1827 1
  2157   1844   1831 1
  2158   1845   1836 1
  2159   1869   1853 1
  2160   1870   1853 1
  2161   1871   1854 1
  2162   1872   1856 1
  2163   1873   1858 1
  2164   1874   1858 1
  2165   1875   1859 1
  2166   1876   1863 1
  2167   1877   1868 1
  2168   1902   1885 1
  2169   1903   1885 1
  2170   1904   1886 1
  2171   1905   1888 1
  2172   1906   1890 1
  2173   1907   1890 1
  2174   1908   1891 1
  2175   1909   1893 1
  2176   1910   1899 1
  2177   1934   1917 1
  2178   1935   1917 1
  2179   1936   1918 1
  2180   1937   1920 1
  2181   1938   1922 1
  2182   1939   1922 1
  2183   1940   1923 1
  2184   1941   1925 1
  2185   1942   1931 1
  2186   1965   1949 1
  2187   1966   1949 1
  2188   1967   1950 1
  2189   1968   1952 1
  2190   1969   1954 1
  2191   1970   1954 1
  2192   1971   1955 1
  2193   1972   1959 1
  2194   1973   1964 1
  2195   1997   1981 1
  2196   1998   1981 1
  2197   1999   1982 1
  2198   2000   1984 1
  2199   2001   1986 1
  2200   2002   1986 1
  2201   2003   1987 1
  2202   2004   1991 1
  2203   2005   1996 1
  2204   2028   2013 1
  2205   2029   2013 1
  2206   2030   2014 1
  2207   2031   2016 1
  2208   2032   2018 1
  2209   2033   2018 1
  2210   2034   2019 1
  2211   2035   2026 1
  2212   2036   2027 1
  2213   2060   2043 1
  2214   2061   2043 1
  2215   2062   2044 1
  2216   2063   2046 1
  2217   2064   2048 1
  2218   2065   2048 1
  2219   2066   2049 1
  2220   2067   2051 1
  2221   2068   2057 1
  2222   2090   2075 1
  2223   2091   2075 1
  2224   2092   2076 1
  2225   2093   2078 1
  2226   2094   2080 1
  2227   2095   2080 1
  2228   2096   2081 1
  2229   2097   2088 1
  2230   2098   2089 1
  2231   1686   1674 1
  2232   1687   1674 1
  2233   1751   1739 1
  2234   1752   1739 1
  2235   2037   2025 1
  2236   2038   2025 1
  2237   2099   2087 1
  2238   2100   2087 1
  2239   1783   1769 1
  2240   1784   1769 1
  2241   1815   1801 1
  2242   1816   1801 1
  2243   1911   1897 1
  2244   1912   1897 1
  2245   1943   1929 1
  2246   1944   1929 1
  2247   2069   2055 1
  2248   2070   2055 1
  2249   1717   1706 1
  2250   1718   1706 1
  2251   1719   1706 1
  2252   1846   1835 1
  2253   1847   1835 1
  2254   1848   1835 1
  2255   1878   1867 1
  2256   1879   1867 1
  2257   1880   1867 1
  2258   1974   1963 1
  2259   1975   1963 1
  2260   1976   1963 1
  2261   2006   1995 1
  2262   2007   1995 1
  2263   2008   1995 1
@<TRIPOS>MOLECULE
dna-seg-29-bp33
2098 2261 1 0 0
BIOPOLYMER
NO_CHARGES


@<TRIPOS>ATOM
      1 P          8.1652     4.0742  3173.9470 P.3      968 DC      0.0000
      2 OP1        8.4342     5.1170  3172.8790 O.co2    968 DC      0.0000
      3 OP2        9.3469     3.5875  3174.6819 O.co2    968 DC      0.0000
      4 O5'        6.8556     4.5869  3174.7730 O.3      968 DC      0.0000
      5 C5'        5.7928     4.6161  3173.7507 C.3      968 DC      0.0000
      6 C4'        4.5223     5.0127  3174.4472 C.3      968 DC      0.0000
      7 O4'        3.6839     3.9267  3174.6942 O.3      968 DC      0.0000
      8 C3'        4.7110     5.8006  3175.7387 C.3      968 DC      0.0000
      9 O3'        4.0330     7.0474  3175.6590 O.3      968 DC      0.0000
     10 C2'        4.2450     4.7884  3176.7875 C.3      968 DC      0.0000
     11 C1'        3.2380     3.9615  3176.0911 C.3      968 DC      0.0000
     12 N1         3.2009     2.5338  3176.4232 N.am     968 DC      0.0000
     13 C2         1.9393     2.0012  3176.6790 C.2      968 DC      0.0000
     14 O2         0.9301     2.7128  3176.6834 O.2      968 DC      0.0000
     15 N3         1.8633     0.6579  3176.9528 N.2      968 DC      0.0000
     16 C4         2.9733    -0.1347  3176.9429 C.2      968 DC      0.0000
     17 N4         2.7970    -1.4220  3177.2197 N.pl3    968 DC      0.0000
     18 C5         4.2436     0.4161  3176.6649 C.2      968 DC      0.0000
     19 C6         4.3018     1.7375  3176.4001 C.2      968 DC      0.0000
     20 H5'        6.0380     5.3438  3172.9771 H        968 DC      0.0000
     21 H5''       5.6787     3.6273  3173.3065 H        968 DC      0.0000
     22 H4'        3.9854     5.6679  3173.7613 H        968 DC      0.0000
     23 H3'        5.7750     5.9889  3175.8820 H        968 DC      0.0000
     24 H2'        5.0794     4.1738  3177.1254 H        968 DC      0.0000
     25 H2''       3.7899     5.3041  3177.6330 H        968 DC      0.0000
     26 H1'        2.2460     4.4059  3176.1720 H        968 DC      0.0000
     27 H5         5.1332    -0.1963  3176.6643 H        968 DC      0.0000
     28 H6         5.2582     2.1786  3176.1610 H        968 DC      0.0000
     29 H41        1.8714    -1.7736  3177.4189 H        968 DC      0.0000
     30 H42        3.5887    -2.0491  3177.2310 H        968 DC      0.0000
     31 P          4.2795     8.3382  3176.6111 P.3      969 DA      0.0000
     32 OP1        3.8609     9.5609  3175.8173 O.co2    969 DA      0.0000
     33 OP2        5.7152     8.3769  3176.9566 O.co2    969 DA      0.0000
     34 O5'        3.3038     8.0667  3177.9081 O.3      969 DA      0.0000
     35 C5'        1.9028     7.7783  3177.6129 C.3      969 DA      0.0000
     36 C4'        1.1607     7.4554  3178.8681 C.3      969 DA      0.0000
     37 O4'        0.9556     6.0603  3179.1103 O.3      969 DA      0.0000
     38 C3'        1.8309     7.9160  3180.1734 C.3      969 DA      0.0000
     39 O3'        0.8406     7.9588  3181.2033 O.3      969 DA      0.0000
     40 C2'        2.7974     6.7341  3180.3880 C.3      969 DA      0.0000
     41 C1'        1.7579     5.6232  3180.2047 C.3      969 DA      0.0000
     42 N9         2.4378     4.3424  3180.1104 N.ar     969 DA      0.0000
     43 C8         3.7678     4.0466  3179.9945 C.ar     969 DA      0.0000
     44 N7         4.0529     2.7569  3179.9759 N.ar     969 DA      0.0000
     45 C5         2.8066     2.1560  3180.0835 C.ar     969 DA      0.0000
     46 C6         2.4080     0.7970  3180.1180 C.ar     969 DA      0.0000
     47 N6         3.2358    -0.2288  3180.0327 N.pl3    969 DA      0.0000
     48 N1         1.0687     0.5663  3180.2506 N.ar     969 DA      0.0000
     49 C2         0.1744     1.6004  3180.3308 C.ar     969 DA      0.0000
     50 N3         0.4709     2.8976  3180.3009 N.ar     969 DA      0.0000
     51 C4         1.8044     3.1078  3180.1779 C.ar     969 DA      0.0000
     52 H5'        1.4486     8.6500  3177.1417 H        969 DA      0.0000
     53 H5''       1.8452     6.9294  3176.9316 H        969 DA      0.0000
     54 H4'        0.1819     7.9314  3178.8092 H        969 DA      0.0000
     55 H3'        2.3539     8.8656  3180.0597 H        969 DA      0.0000
     56 H2'        3.5867     6.6970  3179.6372 H        969 DA      0.0000
     57 H2''       3.2076     6.7332  3181.3979 H        969 DA      0.0000
     58 H1'        1.1285     5.6034  3181.0943 H        969 DA      0.0000
     59 H8         4.5282     4.8102  3179.9235 H        969 DA      0.0000
     60 H2        -0.8690     1.3388  3180.4272 H        969 DA      0.0000
     61 H61        3.1501    -1.2189  3180.2128 H        969 DA      0.0000
     62 H62        4.1584     0.0354  3179.7180 H        969 DA      0.0000
     63 P         -0.1638     9.1965  3181.3438 P.3      970 DC      0.0000
     64 OP1       -0.2737    10.0081  3180.0987 O.co2    970 DC      0.0000
     65 OP2        0.4359     9.9635  3182.4866 O.co2    970 DC      0.0000
     66 O5'       -1.5608     8.5018  3181.6269 O.3      970 DC      0.0000
     67 C5'       -2.3766     7.9705  3180.5392 C.3      970 DC      0.0000
     68 C4'       -3.1264     6.8345  3181.2442 C.3      970 DC      0.0000
     69 O4'       -2.1813     5.8374  3181.5562 O.3      970 DC      0.0000
     70 C3'       -3.7885     7.2537  3182.5541 C.3      970 DC      0.0000
     71 O3'       -5.1847     6.8853  3182.6220 O.3      970 DC      0.0000
     72 C2'       -2.9298     6.5820  3183.6363 C.3      970 DC      0.0000
     73 C1'       -2.4640     5.3568  3182.9601 C.3      970 DC      0.0000
     74 N1        -1.1944     4.7268  3183.3129 N.am     970 DC      0.0000
     75 C2        -1.1971     3.3334  3183.2860 C.2      970 DC      0.0000
     76 O2        -2.2105     2.6778  3183.0791 O.2      970 DC      0.0000
     77 N3        -0.0198     2.7012  3183.5391 N.2      970 DC      0.0000
     78 C4         1.1325     3.3749  3183.7725 C.2      970 DC      0.0000
     79 N4         2.2217     2.6445  3184.0034 N.pl3    970 DC      0.0000
     80 C5         1.1253     4.7970  3183.7791 C.2      970 DC      0.0000
     81 C6        -0.0401     5.4139  3183.5296 C.2      970 DC      0.0000
     82 H5'       -3.0651     8.7228  3180.1544 H        970 DC      0.0000
     83 H5''      -1.7467     7.5794  3179.7402 H        970 DC      0.0000
     84 H4'       -3.8793     6.4238  3180.5715 H        970 DC      0.0000
     85 H3'       -3.7048     8.3353  3182.6600 H        970 DC      0.0000
     86 H2'       -2.0911     7.2164  3183.9233 H        970 DC      0.0000
     87 H2''      -3.5366     6.3322  3184.5065 H        970 DC      0.0000
     88 H1'       -3.2597     4.6120  3182.9468 H        970 DC      0.0000
     89 H5         2.0252     5.3601  3183.9776 H        970 DC      0.0000
     90 H6        -0.0627     6.4932  3183.4999 H        970 DC      0.0000
     91 H41        2.1652     1.6361  3183.9924 H        970 DC      0.0000
     92 H42        3.1044     3.0989  3184.1896 H        970 DC      0.0000
     93 P          3.9578    -7.5088  3185.5815 P.3      970 DG      0.0000
     94 OP1        4.7087    -8.7899  3185.7603 O.co2    970 DG      0.0000
     95 OP2        4.5483    -6.6178  3184.4967 O.co2    970 DG      0.0000
     96 O5'        2.3585    -7.8381  3185.3742 O.3      970 DG      0.0000
     97 C5'        1.4244    -7.5610  3186.4700 C.3      970 DG      0.0000
     98 C4'        0.1392    -7.0343  3185.8357 C.3      970 DG      0.0000
     99 O4'        0.1356    -5.6361  3185.7399 O.3      970 DG      0.0000
    100 C3'       -0.1332    -7.5615  3184.4294 C.3      970 DG      0.0000
    101 O3'       -1.5230    -7.8603  3184.1624 O.3      970 DG      0.0000
    102 C2'        0.3829    -6.4261  3183.5271 C.3      970 DG      0.0000
    103 C1'       -0.0054    -5.2096  3184.3509 C.3      970 DG      0.0000
    104 N9         0.8934    -4.0752  3184.0776 N.ar     970 DG      0.0000
    105 C8         2.2590    -4.0976  3183.9210 C.ar     970 DG      0.0000
    106 N7         2.7877    -2.9229  3183.7026 N.ar     970 DG      0.0000
    107 C5         1.6973    -2.0612  3183.7274 C.ar     970 DG      0.0000
    108 C6         1.6121    -0.6521  3183.5709 C.2      970 DG      0.0000
    109 O6         2.5539     0.1290  3183.3741 O.2      970 DG      0.0000
    110 N1         0.3371    -0.1499  3183.6578 N.am     970 DG      0.0000
    111 C2        -0.7455    -0.9353  3183.8785 C.2      970 DG      0.0000
    112 N2        -1.9168    -0.3080  3183.9418 N.pl3    970 DG      0.0000
    113 N3        -0.7204    -2.2644  3184.0362 N.2      970 DG      0.0000
    114 C4         0.5310    -2.7564  3183.9529 C.ar     970 DG      0.0000
    115 H5'        1.2198    -8.4748  3187.0278 H        970 DG      0.0000
    116 H5''       1.8459    -6.8071  3187.1349 H        970 DG      0.0000
    117 H4'       -0.6948    -7.3294  3186.4724 H        970 DG      0.0000
    118 H3'        0.4656    -8.4561  3184.2589 H        970 DG      0.0000
    119 H2'        1.4618    -6.4862  3183.3844 H        970 DG      0.0000
    120 H2''      -0.1356    -6.4267  3182.5684 H        970 DG      0.0000
    121 H1'       -1.0386    -4.9296  3184.1457 H        970 DG      0.0000
    122 H8         2.8425    -5.0048  3183.9737 H        970 DG      0.0000
    123 H1         0.2002     0.8453  3183.5530 H        970 DG      0.0000
    124 H21       -1.9597     0.6945  3183.8267 H        970 DG      0.0000
    125 H22       -2.7634    -0.8342  3184.1050 H        970 DG      0.0000
    126 P         -1.9891    -7.6880  3182.6389 P.3      969 DT      0.0000
    127 OP1       -3.1300    -8.5883  3182.2480 O.co2    969 DT      0.0000
    128 OP2       -0.7385    -8.0704  3181.9384 O.co2    969 DT      0.0000
    129 O5'       -2.4301    -6.1532  3182.5080 O.3      969 DT      0.0000
    130 C5'       -3.8358    -5.8461  3182.7757 C.3      969 DT      0.0000
    131 C4'       -4.2032    -4.5884  3182.0186 C.3      969 DT      0.0000
    132 O4'       -3.1561    -3.6349  3181.9913 O.3      969 DT      0.0000
    133 C3'       -4.5607    -4.8511  3180.5639 C.3      969 DT      0.0000
    134 O3'       -5.6463    -4.0376  3180.0688 O.3      969 DT      0.0000
    135 C2'       -3.2641    -4.5609  3179.8411 C.3      969 DT      0.0000
    136 C1'       -2.8157    -3.3349  3180.6192 C.3      969 DT      0.0000
    137 N1        -1.3547    -3.2480  3180.4678 N.am     969 DT      0.0000
    138 C2        -0.8004    -1.9766  3180.5746 C.2      969 DT      0.0000
    139 O2        -1.5173    -0.9998  3180.7644 O.2      969 DT      0.0000
    140 N3         0.5575    -1.8757  3180.4545 N.am     969 DT      0.0000
    141 C4         1.3450    -2.9663  3180.2369 C.2      969 DT      0.0000
    142 O4         2.6019    -2.7727  3180.1393 O.2      969 DT      0.0000
    143 C5         0.7485    -4.2551  3180.1305 C.2      969 DT      0.0000
    144 C7         1.6078    -5.4654  3179.9015 C.3      969 DT      0.0000
    145 C6        -0.5782    -4.3478  3180.2523 C.2      969 DT      0.0000
    146 H5'       -4.4630    -6.6728  3182.4419 H        969 DT      0.0000
    147 H5''      -3.9790    -5.6857  3183.8443 H        969 DT      0.0000
    148 H4'       -5.0660    -4.1351  3182.5066 H        969 DT      0.0000
    149 H3'       -4.8142    -5.9040  3180.4399 H        969 DT      0.0000
    150 H2'       -2.5543    -5.3831  3179.9326 H        969 DT      0.0000
    151 H2''      -3.4458    -4.3155  3178.7947 H        969 DT      0.0000
    152 H1'       -3.3125    -2.4303  3180.2685 H        969 DT      0.0000
    153 H3         0.9899    -0.9660  3180.5291 H        969 DT      0.0000
    154 H6        -1.0474    -5.3176  3180.1781 H        969 DT      0.0000
    155 H71        2.6525    -5.1622  3179.8328 H        969 DT      0.0000
    156 H72        1.4852    -6.1601  3180.7324 H        969 DT      0.0000
    157 H73        1.3091    -5.9528  3178.9734 H        969 DT      0.0000
    158 P         -6.7026    -5.0539  3179.2904 P.3      968 DG      0.0000
    159 OP1       -7.8187    -5.5309  3180.1616 O.co2    968 DG      0.0000
    160 OP2       -5.7364    -6.1051  3178.8849 O.co2    968 DG      0.0000
    161 O5'       -7.3249    -4.0542  3178.2096 O.3      968 DG      0.0000
    162 C5'       -8.3422    -3.1115  3178.6331 C.3      968 DG      0.0000
    163 C4'       -7.8229    -1.7511  3178.1853 C.3      968 DG      0.0000
    164 O4'       -6.4385    -1.6584  3178.4560 O.3      968 DG      0.0000
    165 C3'       -8.0195    -1.4596  3176.6976 C.3      968 DG      0.0000
    166 O3'       -8.7433    -0.2601  3176.4891 O.3      968 DG      0.0000
    167 C2'       -6.6152    -1.4847  3176.1209 C.3      968 DG      0.0000
    168 C1'       -5.7606    -1.1049  3177.3070 C.3      968 DG      0.0000
    169 N9        -4.4134    -1.6681  3177.1835 N.ar     968 DG      0.0000
    170 C8        -4.0521    -2.9760  3177.0246 C.ar     968 DG      0.0000
    171 N7        -2.7567    -3.1598  3176.9465 N.ar     968 DG      0.0000
    172 C5        -2.2248    -1.8810  3177.0841 C.ar     968 DG      0.0000
    173 C6        -0.8861    -1.4080  3177.0935 C.2      968 DG      0.0000
    174 O6         0.1369    -2.0779  3176.9945 O.2      968 DG      0.0000
    175 N1        -0.7621    -0.0558  3177.2425 N.am     968 DG      0.0000
    176 C2        -1.8541     0.7673  3177.3754 C.2      968 DG      0.0000
    177 N2        -1.5904     2.0672  3177.5110 N.pl3    968 DG      0.0000
    178 N3        -3.1361     0.3881  3177.3797 N.2      968 DG      0.0000
    179 C4        -3.2431    -0.9541  3177.2290 C.ar     968 DG      0.0000
    180 H5'       -9.2957    -3.3349  3178.1543 H        968 DG      0.0000
    181 H5''      -8.4503    -3.1355  3179.7174 H        968 DG      0.0000
    182 H4'       -8.3381    -0.9802  3178.7583 H        968 DG      0.0000
    183 H3'       -8.5850    -2.2817  3176.2590 H        968 DG      0.0000
    184 H2'       -6.3589    -2.4788  3175.7545 H        968 DG      0.0000
    185 H2''      -6.5151    -0.7463  3175.3253 H        968 DG      0.0000
    186 H1'       -5.7047    -0.0198  3177.3941 H        968 DG      0.0000
    187 H8        -4.7673    -3.7833  3176.9685 H        968 DG      0.0000
    188 H1         0.1619     0.3519  3177.2554 H        968 DG      0.0000
    189 H21       -0.6338     2.3911  3177.5120 H        968 DG      0.0000
    190 H22       -2.3473     2.7281  3177.6128 H        968 DG      0.0000
    191 P         -7.5090     6.6330  3187.6230 P.3      971 DG      0.0000
    192 OP1       -8.0201     8.0260  3187.6215 O.co2    971 DG      0.0000
    193 OP2       -6.3955     6.5708  3188.6787 O.co2    971 DG      0.0000
    194 O5'       -8.5835     5.4733  3187.8014 O.3      971 DG      0.0000
    195 C5'       -9.1572     4.6048  3186.8014 C.3      971 DG      0.0000
    196 C4'       -9.0535     3.1786  3187.3002 C.3      971 DG      0.0000
    197 O4'       -7.8588     2.5553  3186.8811 O.3      971 DG      0.0000
    198 C3'       -9.1656     2.9397  3188.7924 C.3      971 DG      0.0000
    199 O3'      -10.2003     1.9684  3189.1044 O.3      971 DG      0.0000
    200 C2'       -7.7780     2.4952  3189.2143 C.3      971 DG      0.0000
    201 C1'       -7.2049     1.8838  3187.9586 C.3      971 DG      0.0000
    202 N9        -5.7424     2.0668  3187.9296 N.ar     971 DG      0.0000
    203 C8        -5.0008     3.2016  3188.1585 C.ar     971 DG      0.0000
    204 N7        -3.7024     3.0213  3188.0688 N.ar     971 DG      0.0000
    205 C5        -3.5767     1.6713  3187.7518 C.ar     971 DG      0.0000
    206 C6        -2.4398     0.8567  3187.5258 C.2      971 DG      0.0000
    207 O6        -1.2524     1.1822  3187.5471 O.2      971 DG      0.0000
    208 N1        -2.7095    -0.4546  3187.2443 N.am     971 DG      0.0000
    209 C2        -3.9118    -0.9309  3187.1837 C.2      971 DG      0.0000
    210 N2        -3.8854    -2.1720  3186.8869 N.pl3    971 DG      0.0000
    211 N3        -5.0924    -0.2108  3187.3924 N.2      971 DG      0.0000
    212 C4        -4.8200     1.0734  3187.6650 C.ar     971 DG      0.0000
    213 H5'      -10.2038     4.8652  3186.6427 H        971 DG      0.0000
    214 H5''      -8.6072     4.7078  3185.8660 H        971 DG      0.0000
    215 H4'       -9.8708     2.6271  3186.8355 H        971 DG      0.0000
    216 H3'       -9.4023     3.8821  3189.2864 H        971 DG      0.0000
    217 H2'       -7.1796     3.3454  3189.5413 H        971 DG      0.0000
    218 H2''      -7.8421     1.7485  3190.0058 H        971 DG      0.0000
    219 H1'       -7.4425     0.8205  3187.9267 H        971 DG      0.0000
    220 H8        -5.4464     4.1575  3188.3915 H        971 DG      0.0000
    221 H1        -1.9347    -1.0801  3187.0759 H        971 DG      0.0000
    222 H21       -3.0011    -2.6380  3186.7425 H        971 DG      0.0000
    223 H22       -4.7489    -2.6881  3186.7964 H        971 DG      0.0000
    224 P        -10.3525     1.3137  3190.5329 P.3      972 DT      0.0000
    225 OP1      -11.7598     1.1464  3191.0446 O.co2    972 DT      0.0000
    226 OP2       -9.7263     2.3786  3191.4516 O.co2    972 DT      0.0000
    227 O5'       -9.4735     0.0372  3190.5615 O.3      972 DT      0.0000
    228 C5'      -10.0159    -1.3043  3190.4175 C.3      972 DT      0.0000
    229 C4'       -8.8060    -2.2133  3190.4750 C.3      972 DT      0.0000
    230 O4'       -7.6070    -1.5229  3190.1999 O.3      972 DT      0.0000
    231 C3'       -8.5529    -2.9106  3191.7878 C.3      972 DT      0.0000
    232 O3'       -8.7138    -4.3242  3191.5996 O.3      972 DT      0.0000
    233 C2'       -7.1189    -2.5555  3192.1800 C.3      972 DT      0.0000
    234 C1'       -6.5219    -2.2666  3190.8272 C.3      972 DT      0.0000
    235 N1        -5.3735    -1.3653  3190.9239 N.am     972 DT      0.0000
    236 C2        -4.1311    -1.9040  3190.7260 C.2      972 DT      0.0000
    237 O2        -3.9595    -3.0973  3190.4878 O.2      972 DT      0.0000
    238 N3        -3.0622    -1.0525  3190.8070 N.am     972 DT      0.0000
    239 C4        -3.1929     0.2689  3191.0629 C.2      972 DT      0.0000
    240 O4        -2.1193     0.9247  3191.1082 O.2      972 DT      0.0000
    241 C5        -4.5013     0.8152  3191.2626 C.2      972 DT      0.0000
    242 C7        -4.6894     2.2709  3191.5425 C.3      972 DT      0.0000
    243 C6        -5.5410    -0.0249  3191.1811 C.2      972 DT      0.0000
    244 H5'      -10.7055    -1.5297  3191.2310 H        972 DT      0.0000
    245 H5''     -10.5196    -1.4066  3189.4563 H        972 DT      0.0000
    246 H4'       -8.9304    -2.9801  3189.7105 H        972 DT      0.0000
    247 H3'       -9.2496    -2.5506  3192.5449 H        972 DT      0.0000
    248 H2'       -7.0853    -1.6802  3192.8288 H        972 DT      0.0000
    249 H2''      -6.6234    -3.4054  3192.6492 H        972 DT      0.0000
    250 H1'       -6.2818    -3.1793  3190.2819 H        972 DT      0.0000
    251 H3        -2.1348    -1.4280  3190.6695 H        972 DT      0.0000
    252 H6        -6.5397     0.3614  3191.3215 H        972 DT      0.0000
    253 H71       -5.0271     2.7748  3190.6370 H        972 DT      0.0000
    254 H72       -3.7431     2.7033  3191.8673 H        972 DT      0.0000
    255 H73       -5.4348     2.3965  3192.3278 H        972 DT      0.0000
    256 P         -9.3928    -5.0636  3192.8795 P.3      973 DG      0.0000
    257 OP1      -10.2437    -6.1054  3192.1644 O.co2    973 DG      0.0000
    258 OP2      -10.1611    -4.0888  3193.6330 O.co2    973 DG      0.0000
    259 O5'       -7.9966    -5.6496  3193.4890 O.3      973 DG      0.0000
    260 C5'       -7.2006    -6.2499  3192.3984 C.3      973 DG      0.0000
    261 C4'       -5.8107    -6.4708  3192.9185 C.3      973 DG      0.0000
    262 O4'       -4.8998    -5.4196  3192.7379 O.3      973 DG      0.0000
    263 C3'       -5.7917    -6.8214  3194.4265 C.3      973 DG      0.0000
    264 O3'       -5.0638    -8.0632  3194.5854 O.3      973 DG      0.0000
    265 C2'       -5.1852    -5.5974  3195.0791 C.3      973 DG      0.0000
    266 C1'       -4.2276    -5.1112  3193.9975 C.3      973 DG      0.0000
    267 N9        -3.9079    -3.6894  3194.1671 N.ar     973 DG      0.0000
    268 C8        -4.7421    -2.6590  3194.5033 C.ar     973 DG      0.0000
    269 N7        -4.1562    -1.4851  3194.5890 N.ar     973 DG      0.0000
    270 C5        -2.8335    -1.7719  3194.2590 C.ar     973 DG      0.0000
    271 C6        -1.6925    -0.9248  3194.1647 C.2      973 DG      0.0000
    272 O6        -1.6285     0.2986  3194.3570 O.2      973 DG      0.0000
    273 N1        -0.5272    -1.5757  3193.8296 N.am     973 DG      0.0000
    274 C2        -0.4906    -2.9182  3193.6058 C.2      973 DG      0.0000
    275 N2         0.7282    -3.3803  3193.2970 N.pl3    973 DG      0.0000
    276 N3        -1.5275    -3.7499  3193.6769 N.2      973 DG      0.0000
    277 C4        -2.6668    -3.1160  3194.0034 C.ar     973 DG      0.0000
    278 H5'       -7.6402    -7.2009  3192.0979 H        973 DG      0.0000
    279 H5''      -7.1719    -5.5711  3191.5460 H        973 DG      0.0000
    280 H4'       -5.4077    -7.3334  3192.3879 H        973 DG      0.0000
    281 H3'       -6.8140    -6.9524  3194.7813 H        973 DG      0.0000
    282 H2'       -5.9454    -4.8487  3195.3020 H        973 DG      0.0000
    283 H2''      -4.6393    -5.8727  3195.9815 H        973 DG      0.0000
    284 H1'       -3.3057    -5.6897  3194.0565 H        973 DG      0.0000
    285 H8        -5.7978    -2.7985  3194.6839 H        973 DG      0.0000
    286 H1         0.3261    -1.0417  3193.7473 H        973 DG      0.0000
    287 H21        1.5115    -2.7446  3193.2468 H        973 DG      0.0000
    288 H22        0.8639    -4.3643  3193.1144 H        973 DG      0.0000
    289 P         -4.9486    -8.7723  3195.9738 P.3      974 DA      0.0000
    290 OP1       -6.0307    -9.7397  3196.3291 O.co2    974 DA      0.0000
    291 OP2       -5.1426    -7.4940  3196.8695 O.co2    974 DA      0.0000
    292 O5'       -3.4385    -9.1873  3196.2229 O.3      974 DA      0.0000
    293 C5'       -2.4591    -9.3911  3195.1939 C.3      974 DA      0.0000
    294 C4'       -1.2193    -8.6503  3195.6682 C.3      974 DA      0.0000
    295 O4'       -1.4154    -7.2553  3195.5778 O.3      974 DA      0.0000
    296 C3'       -0.7617    -8.9428  3197.0972 C.3      974 DA      0.0000
    297 O3'        0.6579    -9.1936  3197.1495 O.3      974 DA      0.0000
    298 C2'       -1.1710    -7.6608  3197.8327 C.3      974 DA      0.0000
    299 C1'       -0.8281    -6.6434  3196.7551 C.3      974 DA      0.0000
    300 N9        -1.4158    -5.3195  3196.9835 N.ar     974 DA      0.0000
    301 C8        -2.7164    -4.9615  3197.1992 C.ar     974 DA      0.0000
    302 N7        -2.8929    -3.6694  3197.3642 N.ar     974 DA      0.0000
    303 C5        -1.6191    -3.1392  3197.2240 C.ar     974 DA      0.0000
    304 C6        -1.1490    -1.8086  3197.2720 C.ar     974 DA      0.0000
    305 N6        -1.9219    -0.7423  3197.4917 N.pl3    974 DA      0.0000
    306 N1         0.1956    -1.6587  3197.0822 N.ar     974 DA      0.0000
    307 C2         0.9977    -2.7264  3196.8644 C.ar     974 DA      0.0000
    308 N3         0.6261    -4.0047  3196.8062 N.ar     974 DA      0.0000
    309 C4        -0.7001    -4.1334  3196.9930 C.ar     974 DA      0.0000
    310 H5'       -2.8096    -8.9811  3194.2467 H        974 DA      0.0000
    311 H5''      -2.2431   -10.4540  3195.0861 H        974 DA      0.0000
    312 H4'       -0.4005    -8.9132  3194.9984 H        974 DA      0.0000
    313 H3'       -1.3083    -9.7961  3197.4987 H        974 DA      0.0000
    314 H2'       -2.2330    -7.6527  3198.0782 H        974 DA      0.0000
    315 H2''      -0.5618    -7.5086  3198.7236 H        974 DA      0.0000
    316 H1'        0.2529    -6.5630  3196.6406 H        974 DA      0.0000
    317 H8        -3.5261    -5.6754  3197.2313 H        974 DA      0.0000
    318 H2         2.0486    -2.5212  3196.7231 H        974 DA      0.0000
    319 H61       -2.9271    -0.7260  3197.3943 H        974 DA      0.0000
    320 H62       -1.5339     0.1743  3197.3202 H        974 DA      0.0000
    321 P          1.3384   -10.1591  3198.2909 P.3      975 DA      0.0000
    322 OP1        2.0100   -11.3336  3197.6239 O.co2    975 DA      0.0000
    323 OP2        0.1628   -10.4899  3199.1219 O.co2    975 DA      0.0000
    324 O5'        2.5479    -9.2645  3198.8218 O.3      975 DA      0.0000
    325 C5'        3.6270    -8.8272  3197.9975 C.3      975 DA      0.0000
    326 C4'        4.1057    -7.4840  3198.5198 C.3      975 DA      0.0000
    327 O4'        3.0638    -6.5498  3198.5479 O.3      975 DA      0.0000
    328 C3'        4.7666    -7.4598  3199.8871 C.3      975 DA      0.0000
    329 O3'        6.1322    -7.0515  3199.8093 O.3      975 DA      0.0000
    330 C2'        3.8583    -6.5431  3200.7158 C.3      975 DA      0.0000
    331 C1'        3.1801    -5.6824  3199.7220 C.3      975 DA      0.0000
    332 N9         1.8301    -5.1543  3199.9901 N.ar     975 DA      0.0000
    333 C8         0.6304    -5.8137  3200.1053 C.ar     975 DA      0.0000
    334 N7        -0.4027    -5.0229  3200.2745 N.ar     975 DA      0.0000
    335 C5         0.1478    -3.7458  3200.2375 C.ar     975 DA      0.0000
    336 C6        -0.4425    -2.4555  3200.3580 C.ar     975 DA      0.0000
    337 N6        -1.7333    -2.2138  3200.5496 N.pl3    975 DA      0.0000
    338 N1         0.4240    -1.3957  3200.2598 N.ar     975 DA      0.0000
    339 C2         1.7592    -1.6049  3200.0707 C.ar     975 DA      0.0000
    340 N3         2.3734    -2.7776  3199.9629 N.ar     975 DA      0.0000
    341 C4         1.5098    -3.8088  3200.0548 C.ar     975 DA      0.0000
    342 H5'        3.2861    -8.7227  3196.9674 H        975 DA      0.0000
    343 H5''       4.4411    -9.5506  3198.0434 H        975 DA      0.0000
    344 H4'        4.8423    -7.1131  3197.8071 H        975 DA      0.0000
    345 H3'        4.7272    -8.4635  3200.3103 H        975 DA      0.0000
    346 H2'        3.1300    -7.1294  3201.2761 H        975 DA      0.0000
    347 H2''       4.4556    -5.9353  3201.3954 H        975 DA      0.0000
    348 H1'        3.8379    -4.8488  3199.4760 H        975 DA      0.0000
    349 H8         0.5450    -6.8894  3200.0604 H        975 DA      0.0000
    350 H2         2.3816    -0.7250  3200.0016 H        975 DA      0.0000
    351 H61       -2.3721    -2.9250  3200.8758 H        975 DA      0.0000
    352 H62       -2.0890    -1.2872  3200.3628 H        975 DA      0.0000
    353 P          7.3343    -7.5853  3200.7655 P.3      976 DT      0.0000
    354 OP1        8.6055    -7.8548  3199.9682 O.co2    976 DT      0.0000
    355 OP2        6.8832    -8.6896  3201.5861 O.co2    976 DT      0.0000
    356 O5'        7.7409    -6.2150  3201.5792 O.3      976 DT      0.0000
    357 C5'        7.7112    -5.0615  3200.6341 C.3      976 DT      0.0000
    358 C4'        7.0647    -3.9504  3201.4218 C.3      976 DT      0.0000
    359 O4'        5.6788    -4.1244  3201.6138 O.3      976 DT      0.0000
    360 C3'        7.6546    -3.8217  3202.8384 C.3      976 DT      0.0000
    361 O3'        8.6268    -2.7928  3202.8401 O.3      976 DT      0.0000
    362 C2'        6.4465    -3.5648  3203.7356 C.3      976 DT      0.0000
    363 C1'        5.3806    -3.2278  3202.7710 C.3      976 DT      0.0000
    364 N1         3.9822    -3.4372  3203.1108 N.am     976 DT      0.0000
    365 C2         3.1919    -2.3004  3203.2487 C.2      976 DT      0.0000
    366 O2         3.7013    -1.1906  3203.1607 O.2      976 DT      0.0000
    367 N3         1.8639    -2.4661  3203.5027 N.am     976 DT      0.0000
    368 C4         1.2838    -3.6965  3203.6229 C.2      976 DT      0.0000
    369 O4         0.0393    -3.7679  3203.8780 O.2      976 DT      0.0000
    370 C5         2.1133    -4.8533  3203.4513 C.2      976 DT      0.0000
    371 C7         1.5198    -6.2320  3203.5388 C.3      976 DT      0.0000
    372 C6         3.4221    -4.6843  3203.1955 C.2      976 DT      0.0000
    373 H5'        8.7212    -4.7837  3200.3324 H        976 DT      0.0000
    374 H5''       7.1086    -5.3049  3199.7591 H        976 DT      0.0000
    375 H4'        7.2261    -3.0112  3200.8927 H        976 DT      0.0000
    376 H3'        8.1234    -4.7638  3203.1227 H        976 DT      0.0000
    377 H2'        6.1884    -4.4551  3204.3091 H        976 DT      0.0000
    378 H2''       6.6380    -2.7237  3204.4021 H        976 DT      0.0000
    379 H1'        5.5114    -2.1933  3202.4537 H        976 DT      0.0000
    380 H3         1.2846    -1.6453  3203.6064 H        976 DT      0.0000
    381 H6         4.0475    -5.5532  3203.0534 H        976 DT      0.0000
    382 H71        0.4536    -6.1563  3203.7518 H        976 DT      0.0000
    383 H72        1.6648    -6.7505  3202.5910 H        976 DT      0.0000
    384 H73        2.0111    -6.7891  3204.3366 H        976 DT      0.0000
    385 P          9.6473    -2.4137  3203.9467 P.3      977 DT      0.0000
    386 OP1       10.8475    -1.6460  3203.3346 O.co2    977 DT      0.0000
    387 OP2       10.0724    -3.6902  3204.5766 O.co2    977 DT      0.0000
    388 O5'        8.8907    -1.3087  3204.8290 O.3      977 DT      0.0000
    389 C5'        8.7200    -0.0537  3204.1172 C.3      977 DT      0.0000
    390 C4'        7.6549     0.7377  3204.7934 C.3      977 DT      0.0000
    391 O4'        6.3756     0.1169  3204.7701 O.3      977 DT      0.0000
    392 C3'        7.9538     1.0803  3206.2600 C.3      977 DT      0.0000
    393 O3'        7.6215     2.4301  3206.5241 O.3      977 DT      0.0000
    394 C2'        6.9660     0.1443  3206.9964 C.3      977 DT      0.0000
    395 C1'        5.7704     0.3670  3206.0928 C.3      977 DT      0.0000
    396 N1         4.7077    -0.5755  3206.3905 N.am     977 DT      0.0000
    397 C2         3.4050    -0.1070  3206.4453 C.2      977 DT      0.0000
    398 O2         3.1942     1.0920  3206.2569 O.2      977 DT      0.0000
    399 N3         2.4071    -1.0018  3206.7112 N.am     977 DT      0.0000
    400 C4         2.6545    -2.3242  3206.9182 C.2      977 DT      0.0000
    401 O4         1.6783    -3.0960  3207.1415 O.2      977 DT      0.0000
    402 C5         3.9981    -2.7957  3206.8532 C.2      977 DT      0.0000
    403 C7         4.3507    -4.2394  3207.0631 C.3      977 DT      0.0000
    404 C6         4.9658    -1.9032  3206.5920 C.2      977 DT      0.0000
    405 H5'        9.6558     0.5051  3204.1297 H        977 DT      0.0000
    406 H5''       8.4278    -0.2546  3203.0865 H        977 DT      0.0000
    407 H4'        7.5644     1.6811  3204.2549 H        977 DT      0.0000
    408 H3'        8.9887     0.8611  3206.5225 H        977 DT      0.0000
    409 H2'        7.2990    -0.8935  3206.9951 H        977 DT      0.0000
    410 H2''       6.7679     0.4954  3208.0091 H        977 DT      0.0000
    411 H1'        5.4119     1.3936  3206.1684 H        977 DT      0.0000
    412 H3         1.4539    -0.6708  3206.7556 H        977 DT      0.0000
    413 H6         5.9882    -2.2470  3206.5390 H        977 DT      0.0000
    414 H71        3.4438    -4.8104  3207.2620 H        977 DT      0.0000
    415 H72        4.8357    -4.6285  3206.1678 H        977 DT      0.0000
    416 H73        5.0293    -4.3281  3207.9115 H        977 DT      0.0000
    417 P          8.3503     3.6800  3207.1320 P.3      978 DC      0.0000
    418 OP1        8.6687     4.7087  3206.0641 O.co2    978 DC      0.0000
    419 OP2        9.5074     3.1374  3207.8670 O.co2    978 DC      0.0000
    420 O5'        7.0666     4.2546  3207.9580 O.3      978 DC      0.0000
    421 C5'        6.0065     4.3345  3206.9358 C.3      978 DC      0.0000
    422 C4'        4.7563     4.7912  3207.6323 C.3      978 DC      0.0000
    423 O4'        3.8671     3.7465  3207.8792 O.3      978 DC      0.0000
    424 C3'        4.9824     5.5692  3208.9237 C.3      978 DC      0.0000
    425 O3'        4.3647     6.8470  3208.8441 O.3      978 DC      0.0000
    426 C2'        4.4686     4.5804  3209.9725 C.3      978 DC      0.0000
    427 C1'        3.4233     3.8025  3209.2761 C.3      978 DC      0.0000
    428 N1         3.3182     2.3782  3209.6082 N.am     978 DC      0.0000
    429 C2         2.0325     1.9064  3209.8640 C.2      978 DC      0.0000
    430 O2         1.0584     2.6653  3209.8685 O.2      978 DC      0.0000
    431 N3         1.8926     0.5683  3210.1378 N.2      978 DC      0.0000
    432 C4         2.9634    -0.2764  3210.1279 C.2      978 DC      0.0000
    433 N4         2.7260    -1.5538  3210.4048 N.pl3    978 DC      0.0000
    434 C5         4.2586     0.2132  3209.8499 C.2      978 DC      0.0000
    435 C6         4.3798     1.5302  3209.5851 C.2      978 DC      0.0000
    436 H5'        6.2861     5.0496  3206.1621 H        978 DC      0.0000
    437 H5''       5.8453     3.3523  3206.4916 H        978 DC      0.0000
    438 H4'        4.2513     5.4713  3206.9463 H        978 DC      0.0000
    439 H3'        6.0542     5.7065  3209.0670 H        978 DC      0.0000
    440 H2'        5.2728     3.9267  3210.3104 H        978 DC      0.0000
    441 H2''       4.0386     5.1172  3210.8180 H        978 DC      0.0000
    442 H1'        2.4537     4.2937  3209.3571 H        978 DC      0.0000
    443 H5         5.1180    -0.4409  3209.8493 H        978 DC      0.0000
    444 H6         5.3561     1.9253  3209.3461 H        978 DC      0.0000
    445 H41        1.7846    -1.8609  3210.6040 H        978 DC      0.0000
    446 H42        3.4868    -2.2180  3210.4161 H        978 DC      0.0000
    447 P          4.6725     8.1245  3209.7961 P.3      979 DA      0.0000
    448 OP1        4.3126     9.3658  3209.0024 O.co2    979 DA      0.0000
    449 OP2        6.1083     8.0947  3210.1416 O.co2    979 DA      0.0000
    450 O5'        3.6849     7.8999  3211.0931 O.3      979 DA      0.0000
    451 C5'        2.2717     7.6787  3210.7979 C.3      979 DA      0.0000
    452 C4'        1.5150     7.3916  3212.0532 C.3      979 DA      0.0000
    453 O4'        1.2437     6.0078  3212.2953 O.3      979 DA      0.0000
    454 C3'        2.2065     7.8197  3213.3584 C.3      979 DA      0.0000
    455 O3'        1.2194     7.9096  3214.3883 O.3      979 DA      0.0000
    456 C2'        3.1155     6.5930  3213.5730 C.3      979 DA      0.0000
    457 C1'        2.0241     5.5329  3213.3897 C.3      979 DA      0.0000
    458 N9         2.6422     4.2212  3213.2954 N.ar     979 DA      0.0000
    459 C8         3.9565     3.8622  3213.1796 C.ar     979 DA      0.0000
    460 N7         4.1798     2.5604  3213.1610 N.ar     979 DA      0.0000
    461 C5         2.9063     2.0197  3213.2685 C.ar     979 DA      0.0000
    462 C6         2.4433     0.6812  3213.3030 C.ar     979 DA      0.0000
    463 N6         3.2212    -0.3829  3213.2178 N.pl3    979 DA      0.0000
    464 N1         1.0945     0.5147  3213.4356 N.ar     979 DA      0.0000
    465 C2         0.2505     1.5903  3213.5158 C.ar     979 DA      0.0000
    466 N3         0.6086     2.8718  3213.4859 N.ar     979 DA      0.0000
    467 C4         1.9506     3.0182  3213.3629 C.ar     979 DA      0.0000
    468 H5'        1.8596     8.5710  3210.3267 H        979 DA      0.0000
    469 H5''       2.1737     6.8335  3210.1166 H        979 DA      0.0000
    470 H4'        0.5601     7.9137  3211.9943 H        979 DA      0.0000
    471 H3'        2.7742     8.7432  3213.2447 H        979 DA      0.0000
    472 H2'        3.9021     6.5183  3212.8222 H        979 DA      0.0000
    473 H2''       3.5252     6.5725  3214.5829 H        979 DA      0.0000
    474 H1'        1.3945     5.5432  3214.2794 H        979 DA      0.0000
    475 H8         4.7526     4.5887  3213.1086 H        979 DA      0.0000
    476 H2        -0.8041     1.3788  3213.6122 H        979 DA      0.0000
    477 H61        3.0883    -1.3678  3213.3978 H        979 DA      0.0000
    478 H62        4.1554    -0.1631  3212.9030 H        979 DA      0.0000
    479 P          0.2752     9.1938  3214.5288 P.3      980 DC      0.0000
    480 OP1        0.2041    10.0098  3213.2837 O.co2    980 DC      0.0000
    481 OP2        0.9108     9.9314  3215.6717 O.co2    980 DC      0.0000
    482 O5'       -1.1534     8.5666  3214.8120 O.3      980 DC      0.0000
    483 C5'       -1.9936     8.0749  3213.7242 C.3      980 DC      0.0000
    484 C4'       -2.7968     6.9759  3214.4292 C.3      980 DC      0.0000
    485 O4'       -1.9003     5.9349  3214.7412 O.3      980 DC      0.0000
    486 C3'       -3.4382     7.4262  3215.7391 C.3      980 DC      0.0000
    487 O3'       -4.8503     7.1248  3215.8070 O.3      980 DC      0.0000
    488 C2'       -2.6124     6.7143  3216.8213 C.3      980 DC      0.0000
    489 C1'       -2.2056     5.4682  3216.1451 C.3      980 DC      0.0000
    490 N1        -0.9675     4.7784  3216.4980 N.am     980 DC      0.0000
    491 C2        -1.0367     3.3867  3216.4711 C.2      980 DC      0.0000
    492 O2        -2.0803     2.7802  3216.2642 O.2      980 DC      0.0000
    493 N3         0.1091     2.6991  3216.7242 N.2      980 DC      0.0000
    494 C4         1.2922     3.3171  3216.9576 C.2      980 DC      0.0000
    495 N4         2.3454     2.5355  3217.1885 N.pl3    980 DC      0.0000
    496 C5         1.3529     4.7378  3216.9641 C.2      980 DC      0.0000
    497 C6         0.2182     5.4096  3216.7147 C.2      980 DC      0.0000
    498 H5'       -2.6454     8.8591  3213.3394 H        980 DC      0.0000
    499 H5''      -1.3831     7.6541  3212.9252 H        980 DC      0.0000
    500 H4'       -3.5684     6.6015  3213.7565 H        980 DC      0.0000
    501 H3'       -3.3029     8.5026  3215.8450 H        980 DC      0.0000
    502 H2'       -1.7444     7.3079  3217.1083 H        980 DC      0.0000
    503 H2''      -3.2305     6.4937  3217.6916 H        980 DC      0.0000
    504 H1'       -3.0360     4.7622  3216.1319 H        980 DC      0.0000
    505 H5         2.2786     5.2574  3217.1626 H        980 DC      0.0000
    506 H6         0.2472     6.4888  3216.6849 H        980 DC      0.0000
    507 H41        2.2408     1.5310  3217.1774 H        980 DC      0.0000
    508 H42        3.2487     2.9472  3217.3746 H        980 DC      0.0000
    509 P          3.5951    -7.6891  3218.7665 P.3      980 DG      0.0000
    510 OP1        4.2840    -9.0045  3218.9453 O.co2    980 DG      0.0000
    511 OP2        4.2274    -6.8272  3217.6817 O.co2    980 DG      0.0000
    512 O5'        1.9818    -7.9417  3218.5593 O.3      980 DG      0.0000
    513 C5'        1.0621    -7.6203  3219.6551 C.3      980 DG      0.0000
    514 C4'       -0.1966    -7.0330  3219.0208 C.3      980 DG      0.0000
    515 O4'       -0.1335    -5.6361  3218.9250 O.3      980 DG      0.0000
    516 C3'       -0.4939    -7.5465  3217.6144 C.3      980 DG      0.0000
    517 O3'       -1.8963    -7.7787  3217.3474 O.3      980 DG      0.0000
    518 C2'        0.0759    -6.4370  3216.7122 C.3      980 DG      0.0000
    519 C1'       -0.2539    -5.2034  3217.5360 C.3      980 DG      0.0000
    520 N9         0.6980    -4.1132  3217.2627 N.ar     980 DG      0.0000
    521 C8         2.0609    -4.2007  3217.1060 C.ar     980 DG      0.0000
    522 N7         2.6450    -3.0525  3216.8876 N.ar     980 DG      0.0000
    523 C5         1.5971    -2.1399  3216.9124 C.ar     980 DG      0.0000
    524 C6         1.5792    -0.7282  3216.7559 C.2      980 DG      0.0000
    525 O6         2.5572     0.0070  3216.5591 O.2      980 DG      0.0000
    526 N1         0.3295    -0.1658  3216.8428 N.am     980 DG      0.0000
    527 C2        -0.7893    -0.8987  3217.0635 C.2      980 DG      0.0000
    528 N2        -1.9294    -0.2162  3217.1268 N.pl3    980 DG      0.0000
    529 N3        -0.8276    -2.2274  3217.2212 N.2      980 DG      0.0000
    530 C4         0.3989    -2.7786  3217.1379 C.ar     980 DG      0.0000
    531 H5'        0.8140    -8.5234  3220.2128 H        980 DG      0.0000
    532 H5''       1.5190    -6.8874  3220.3200 H        980 DG      0.0000
    533 H4'       -1.0437    -7.2879  3219.6575 H        980 DG      0.0000
    534 H3'        0.0617    -8.4687  3217.4439 H        980 DG      0.0000
    535 H2'        1.1507    -6.5485  3216.5695 H        980 DG      0.0000
    536 H2''      -0.4421    -6.4129  3215.7534 H        980 DG      0.0000
    537 H1'       -1.2727    -4.8745  3217.3307 H        980 DG      0.0000
    538 H8         2.6005    -5.1347  3217.1587 H        980 DG      0.0000
    539 H1         0.2403     0.8348  3216.7380 H        980 DG      0.0000
    540 H21       -1.9243     0.7872  3217.0118 H        980 DG      0.0000
    541 H22       -2.8000    -0.7014  3217.2900 H        980 DG      0.0000
    542 P         -2.3537    -7.5843  3215.8240 P.3      979 DT      0.0000
    543 OP1       -3.5362    -8.4292  3215.4331 O.co2    979 DT      0.0000
    544 OP2       -1.1227    -8.0259  3215.1234 O.co2    979 DT      0.0000
    545 O5'       -2.7210    -6.0302  3215.6931 O.3      979 DT      0.0000
    546 C5'       -4.1104    -5.6564  3215.9607 C.3      979 DT      0.0000
    547 C4'       -4.4173    -4.3826  3215.2036 C.3      979 DT      0.0000
    548 O4'       -3.3259    -3.4802  3215.1764 O.3      979 DT      0.0000
    549 C3'       -4.7870    -4.6280  3213.7489 C.3      979 DT      0.0000
    550 O3'       -5.8325    -3.7636  3213.2538 O.3      979 DT      0.0000
    551 C2'       -3.4779    -4.4000  3213.0261 C.3      979 DT      0.0000
    552 C1'       -2.9716    -3.1968  3213.8042 C.3      979 DT      0.0000
    553 N1        -1.5081    -3.1797  3213.6529 N.am     979 DT      0.0000
    554 C2        -0.8938    -1.9361  3213.7597 C.2      979 DT      0.0000
    555 O2        -1.5632    -0.9263  3213.9494 O.2      979 DT      0.0000
    556 N3         0.4674    -1.9001  3213.6395 N.am     979 DT      0.0000
    557 C4         1.2020    -3.0271  3213.4219 C.2      979 DT      0.0000
    558 O4         2.4667    -2.8937  3213.3244 O.2      979 DT      0.0000
    559 C5         0.5447    -4.2860  3213.3155 C.2      979 DT      0.0000
    560 C7         1.3452    -5.5359  3213.0866 C.3      979 DT      0.0000
    561 C6        -0.7850    -4.3152  3213.4373 C.2      979 DT      0.0000
    562 H5'       -4.7763    -6.4522  3215.6270 H        979 DT      0.0000
    563 H5''      -4.2457    -5.4894  3217.0293 H        979 DT      0.0000
    564 H4'       -5.2575    -3.8887  3215.6916 H        979 DT      0.0000
    565 H3'       -5.0904    -5.6675  3213.6249 H        979 DT      0.0000
    566 H2'       -2.8082    -5.2551  3213.1176 H        979 DT      0.0000
    567 H2''      -3.6478    -4.1461  3211.9797 H        979 DT      0.0000
    568 H1'       -3.4246    -2.2694  3213.4535 H        979 DT      0.0000
    569 H3         0.9427    -1.0121  3213.7142 H        979 DT      0.0000
    570 H6        -1.3000    -5.2616  3213.3632 H        979 DT      0.0000
    571 H71        2.4032    -5.2828  3213.0179 H        979 DT      0.0000
    572 H72        1.1896    -6.2240  3213.9175 H        979 DT      0.0000
    573 H73        1.0236    -6.0084  3212.1584 H        979 DT      0.0000
    574 P         -6.9361    -4.7284  3212.4754 P.3      978 DG      0.0000
    575 OP1       -8.0737    -5.1516  3213.3467 O.co2    978 DG      0.0000
    576 OP2       -6.0212    -5.8244  3212.0699 O.co2    978 DG      0.0000
    577 O5'       -7.5100    -3.7001  3211.3946 O.3      978 DG      0.0000
    578 C5'       -8.4812    -2.7100  3211.8181 C.3      978 DG      0.0000
    579 C4'       -7.8975    -1.3758  3211.3704 C.3      978 DG      0.0000
    580 O4'       -6.5103    -1.3494  3211.6411 O.3      978 DG      0.0000
    581 C3'       -8.0800    -1.0753  3209.8826 C.3      978 DG      0.0000
    582 O3'       -8.7457     0.1574  3209.6741 O.3      978 DG      0.0000
    583 C2'       -6.6785    -1.1674  3209.3059 C.3      978 DG      0.0000
    584 C1'       -5.8068    -0.8288  3210.4921 C.3      978 DG      0.0000
    585 N9        -4.4880    -1.4556  3210.3685 N.ar     978 DG      0.0000
    586 C8        -4.1895    -2.7792  3210.2096 C.ar     978 DG      0.0000
    587 N7        -2.9043    -3.0247  3210.1316 N.ar     978 DG      0.0000
    588 C5        -2.3120    -1.7727  3210.2691 C.ar     978 DG      0.0000
    589 C6        -0.9523    -1.3641  3210.2786 C.2      978 DG      0.0000
    590 O6         0.0376    -2.0821  3210.1795 O.2      978 DG      0.0000
    591 N1        -0.7639    -0.0194  3210.4275 N.am     978 DG      0.0000
    592 C2        -1.8154     0.8549  3210.5604 C.2      978 DG      0.0000
    593 N2        -1.4900     2.1408  3210.6961 N.pl3    978 DG      0.0000
    594 N3        -3.1140     0.5373  3210.5647 N.2      978 DG      0.0000
    595 C4        -3.2850    -0.7983  3210.4140 C.ar     978 DG      0.0000
    596 H5'       -9.4442    -2.8876  3211.3394 H        978 DG      0.0000
    597 H5''      -8.5902    -2.7287  3212.9024 H        978 DG      0.0000
    598 H4'       -8.3754    -0.5813  3211.9434 H        978 DG      0.0000
    599 H3'       -8.6841    -1.8696  3209.4441 H        978 DG      0.0000
    600 H2'       -6.4699    -2.1726  3208.9396 H        978 DG      0.0000
    601 H2''      -6.5433    -0.4346  3208.5104 H        978 DG      0.0000
    602 H1'       -5.6991     0.2524  3210.5791 H        978 DG      0.0000
    603 H8        -4.9424    -3.5515  3210.1535 H        978 DG      0.0000
    604 H1         0.1785     0.3437  3210.4404 H        978 DG      0.0000
    605 H21       -0.5189     2.4186  3210.6970 H        978 DG      0.0000
    606 H22       -2.2145     2.8369  3210.7979 H        978 DG      0.0000
    607 P         -8.4638     1.4486  3208.8078 P.3      977 DA      0.0000
    608 OP1       -8.8641     2.7065  3209.5892 O.co2    977 DA      0.0000
    609 OP2       -9.3007     1.2993  3207.6151 O.co2    977 DA      0.0000
    610 O5'       -6.8464     1.5349  3208.6330 O.3      977 DA      0.0000
    611 C5'       -6.2090     2.1965  3209.7895 C.3      977 DA      0.0000
    612 C4'       -5.5539     3.4488  3209.2617 C.3      977 DA      0.0000
    613 O4'       -4.1765     3.2822  3209.0394 O.3      977 DA      0.0000
    614 C3'       -6.1301     3.9031  3207.9212 C.3      977 DA      0.0000
    615 O3'       -6.2879     5.2998  3207.8460 O.3      977 DA      0.0000
    616 C2'       -5.1937     3.2438  3206.9246 C.3      977 DA      0.0000
    617 C1'       -3.8970     3.0108  3207.6484 C.3      977 DA      0.0000
    618 N9        -3.3855     1.6481  3207.4229 N.ar     977 DA      0.0000
    619 C8        -4.0900     0.4783  3207.2366 C.ar     977 DA      0.0000
    620 N7        -3.3388    -0.5808  3207.0407 N.ar     977 DA      0.0000
    621 C5        -2.0477    -0.0754  3207.1275 C.ar     977 DA      0.0000
    622 C6        -0.7865    -0.7070  3207.0219 C.ar     977 DA      0.0000
    623 N6        -0.6278    -2.0015  3206.8094 N.pl3    977 DA      0.0000
    624 N1         0.3010     0.1031  3207.1456 N.ar     977 DA      0.0000
    625 C2         0.1671     1.4437  3207.3701 C.ar     977 DA      0.0000
    626 N3        -0.9869     2.0975  3207.4860 N.ar     977 DA      0.0000
    627 C4        -2.0604     1.2820  3207.3499 C.ar     977 DA      0.0000
    628 H5'       -6.9597     2.4515  3210.5375 H        977 DA      0.0000
    629 H5''      -5.4571     1.5392  3210.2262 H        977 DA      0.0000
    630 H4'       -5.6945     4.2481  3209.9893 H        977 DA      0.0000
    631 H3'       -7.1141     3.4481  3207.8081 H        977 DA      0.0000
    632 H2'       -5.0343     3.8983  3206.0677 H        977 DA      0.0000
    633 H2''      -5.6115     2.2929  3206.5941 H        977 DA      0.0000
    634 H1'       -3.1590     3.7285  3207.2903 H        977 DA      0.0000
    635 H8        -5.1691     0.4362  3207.2505 H        977 DA      0.0000
    636 H2         1.0743     2.0224  3207.4614 H        977 DA      0.0000
    637 H61        0.2011    -2.4850  3207.1248 H        977 DA      0.0000
    638 H62       -1.3478    -2.5165  3206.3232 H        977 DA      0.0000
    639 P         -6.0468     6.3173  3206.6614 P.3      976 DA      0.0000
    640 OP1       -6.1095     7.7832  3207.1813 O.co2    976 DA      0.0000
    641 OP2       -7.1922     6.0833  3205.7277 O.co2    976 DA      0.0000
    642 O5'       -4.5678     6.1126  3206.1587 O.3      976 DA      0.0000
    643 C5'       -3.5229     6.9967  3206.6145 C.3      976 DA      0.0000
    644 C4'       -2.2504     6.5753  3205.9126 C.3      976 DA      0.0000
    645 O4'       -2.0911     5.1905  3205.7919 O.3      976 DA      0.0000
    646 C3'       -2.1108     7.1535  3204.5051 C.3      976 DA      0.0000
    647 O3'       -1.0059     8.0766  3204.4736 O.3      976 DA      0.0000
    648 C2'       -2.0518     5.9176  3203.6055 C.3      976 DA      0.0000
    649 C1'       -1.4712     4.8674  3204.5033 C.3      976 DA      0.0000
    650 N9        -1.8287     3.4848  3204.2037 N.ar     976 DA      0.0000
    651 C8        -3.0757     2.9278  3204.0090 C.ar     976 DA      0.0000
    652 N7        -3.0506     1.6299  3203.8035 N.ar     976 DA      0.0000
    653 C5        -1.7109     1.3018  3203.8781 C.ar     976 DA      0.0000
    654 C6        -1.0325     0.0697  3203.7446 C.ar     976 DA      0.0000
    655 N6        -1.6401    -1.0876  3203.5014 N.pl3    976 DA      0.0000
    656 N1         0.3297     0.1338  3203.8934 N.ar     976 DA      0.0000
    657 C2         0.9721     1.2904  3204.1459 C.ar     976 DA      0.0000
    658 N3         0.3987     2.4896  3204.2848 N.ar     976 DA      0.0000
    659 C4        -0.9433     2.4232  3204.1376 C.ar     976 DA      0.0000
    660 H5'       -3.7672     8.0278  3206.3594 H        976 DA      0.0000
    661 H5''      -3.4004     6.9007  3207.6933 H        976 DA      0.0000
    662 H4'       -1.4137     6.9492  3206.5027 H        976 DA      0.0000
    663 H3'       -3.0220     7.7036  3204.2701 H        976 DA      0.0000
    664 H2'       -3.0478     5.6339  3203.2656 H        976 DA      0.0000
    665 H2''      -1.3951     6.0968  3202.7542 H        976 DA      0.0000
    666 H1'       -0.3883     4.9755  3204.5644 H        976 DA      0.0000
    667 H8        -3.9884     3.5051  3204.0239 H        976 DA      0.0000
    668 H2         2.0466     1.2447  3204.2450 H        976 DA      0.0000
    669 H61       -1.1341    -1.9108  3203.7954 H        976 DA      0.0000
    670 H62       -2.5441    -1.1400  3203.0541 H        976 DA      0.0000
    671 P         -0.6445     8.8136  3203.0887 P.3      975 DT      0.0000
    672 OP1        0.2841     9.9873  3203.1468 O.co2    975 DT      0.0000
    673 OP2       -2.0177     9.1077  3202.5760 O.co2    975 DT      0.0000
    674 O5'        0.2161     7.5716  3202.3855 O.3      975 DT      0.0000
    675 C5'        1.0690     6.9564  3203.3978 C.3      975 DT      0.0000
    676 C4'        2.1974     6.2521  3202.7149 C.3      975 DT      0.0000
    677 O4'        1.9751     4.8854  3202.5345 O.3      975 DT      0.0000
    678 C3'        2.5572     6.8271  3201.3536 C.3      975 DT      0.0000
    679 O3'        3.9647     6.8041  3201.0864 O.3      975 DT      0.0000
    680 C2'        1.7085     5.9130  3200.4603 C.3      975 DT      0.0000
    681 C1'        1.9376     4.5605  3201.1003 C.3      975 DT      0.0000
    682 N1         0.7929     3.6590  3200.8704 N.am     975 DT      0.0000
    683 C2         1.0590     2.3065  3200.7487 C.2      975 DT      0.0000
    684 O2         2.2138     1.8787  3200.7855 O.2      975 DT      0.0000
    685 N3        -0.0002     1.4563  3200.5813 N.am     975 DT      0.0000
    686 C4        -1.2828     1.9060  3200.5328 C.2      975 DT      0.0000
    687 O4        -2.1992     1.0506  3200.3473 O.2      975 DT      0.0000
    688 C5        -1.5363     3.2984  3200.6812 C.2      975 DT      0.0000
    689 C7        -2.9474     3.8339  3200.6291 C.3      975 DT      0.0000
    690 C6        -0.4916     4.1149  3200.8542 C.2      975 DT      0.0000
    691 H5'        1.4651     7.7264  3204.0599 H        975 DT      0.0000
    692 H5''       0.4883     6.2391  3203.9779 H        975 DT      0.0000
    693 H4'        3.0759     6.3555  3203.3519 H        975 DT      0.0000
    694 H3'        2.1893     7.8506  3201.2816 H        975 DT      0.0000
    695 H2'        0.6557     6.1938  3200.4909 H        975 DT      0.0000
    696 H2''       2.0801     5.9225  3199.4357 H        975 DT      0.0000
    697 H1'        2.8736     4.1127  3200.7664 H        975 DT      0.0000
    698 H3         0.1757     0.4658  3200.4912 H        975 DT      0.0000
    699 H6        -0.6717     5.1717  3200.9856 H        975 DT      0.0000
    700 H71       -3.1620     4.1967  3199.6239 H        975 DT      0.0000
    701 H72       -3.0513     4.6531  3201.3407 H        975 DT      0.0000
    702 H73       -3.6474     3.0388  3200.8856 H        975 DT      0.0000
    703 P          4.4100     7.3103  3199.5964 P.3      974 DT      0.0000
    704 OP1        5.2123     8.6045  3199.7444 O.co2    974 DT      0.0000
    705 OP2        3.0981     7.6028  3198.9266 O.co2    974 DT      0.0000
    706 O5'        5.2414     6.1762  3198.9444 O.3      974 DT      0.0000
    707 C5'        6.0372     5.2595  3199.6958 C.3      974 DT      0.0000
    708 C4'        6.0944     3.9663  3198.9478 C.3      974 DT      0.0000
    709 O4'        4.9382     3.1753  3198.8908 O.3      974 DT      0.0000
    710 C3'        6.5769     4.0120  3197.4818 C.3      974 DT      0.0000
    711 O3'        7.2819     2.7713  3197.3780 O.3      974 DT      0.0000
    712 C2'        5.2463     3.9843  3196.7180 C.3      974 DT      0.0000
    713 C1'        4.6099     2.8493  3197.4937 C.3      974 DT      0.0000
    714 N1         3.1521     2.7404  3197.3876 N.am     974 DT      0.0000
    715 C2         2.6458     1.4337  3197.3869 C.2      974 DT      0.0000
    716 O2         3.3997     0.4593  3197.4300 O.2      974 DT      0.0000
    717 N3         1.2888     1.2936  3197.3335 N.am     974 DT      0.0000
    718 C4         0.4388     2.3577  3197.2737 C.2      974 DT      0.0000
    719 O4        -0.8056     2.1231  3197.2113 O.2      974 DT      0.0000
    720 C5         0.9792     3.6726  3197.2820 C.2      974 DT      0.0000
    721 C7         0.0464     4.8640  3197.2206 C.3      974 DT      0.0000
    722 C6         2.3072     3.8049  3197.3485 C.2      974 DT      0.0000
    723 H5'        7.0438     5.6595  3199.8180 H        974 DT      0.0000
    724 H5''       5.5852     5.0978  3200.6744 H        974 DT      0.0000
    725 H4'        6.8318     3.3610  3199.4751 H        974 DT      0.0000
    726 H3'        7.1919     4.8824  3197.2530 H        974 DT      0.0000
    727 H2'        5.3768     3.7458  3195.6624 H        974 DT      0.0000
    728 H2''       4.6935     4.9144  3196.8496 H        974 DT      0.0000
    729 H1'        5.0738     1.9032  3197.2147 H        974 DT      0.0000
    730 H3         0.8982     0.3622  3197.3384 H        974 DT      0.0000
    731 H6         2.7272     4.7996  3197.3722 H        974 DT      0.0000
    732 H71       -0.9854     4.5162  3197.1717 H        974 DT      0.0000
    733 H72        0.2722     5.4566  3196.3340 H        974 DT      0.0000
    734 H73        0.1813     5.4774  3198.1115 H        974 DT      0.0000
    735 P          8.2335     2.3342  3196.2318 P.3      973 DC      0.0000
    736 OP1        9.5285     1.7936  3196.8409 O.co2    973 DC      0.0000
    737 OP2        8.5259     3.5762  3195.4499 O.co2    973 DC      0.0000
    738 O5'        7.3324     1.1960  3195.4924 O.3      973 DC      0.0000
    739 C5'        7.2246    -0.0732  3196.2169 C.3      973 DC      0.0000
    740 C4'        7.1555    -1.1510  3195.1663 C.3      973 DC      0.0000
    741 O4'        5.8342    -1.5731  3194.9211 O.3      973 DC      0.0000
    742 C3'        7.7323    -0.7698  3193.8019 C.3      973 DC      0.0000
    743 O3'        8.3475    -1.8474  3193.0926 O.3      973 DC      0.0000
    744 C2'        6.4851    -0.1958  3193.1158 C.3      973 DC      0.0000
    745 C1'        5.3701    -1.0854  3193.6624 C.3      973 DC      0.0000
    746 N1         4.1446    -0.2607  3193.7802 N.am     973 DC      0.0000
    747 C2         2.9254    -0.9366  3193.7974 C.2      973 DC      0.0000
    748 O2         2.8772    -2.1724  3193.7288 O.2      973 DC      0.0000
    749 N3         1.7904    -0.1786  3193.9007 N.2      973 DC      0.0000
    750 C4         1.8316     1.1777  3193.9714 C.2      973 DC      0.0000
    751 N4         0.6968     1.8732  3194.0733 N.pl3    973 DC      0.0000
    752 C5         3.0892     1.8426  3193.9463 C.2      973 DC      0.0000
    753 C6         4.2036     1.0972  3193.8527 C.2      973 DC      0.0000
    754 H5'        8.0974    -0.2206  3196.8528 H        973 DC      0.0000
    755 H5''       6.3171    -0.0821  3196.8208 H        973 DC      0.0000
    756 H4'        7.7155    -2.0103  3195.5351 H        973 DC      0.0000
    757 H3'        8.4621     0.0285  3193.9361 H        973 DC      0.0000
    758 H2'        6.5589    -0.2780  3192.0314 H        973 DC      0.0000
    759 H2''       6.3278     0.8414  3193.4118 H        973 DC      0.0000
    760 H1'        5.1932    -1.9192  3192.9830 H        973 DC      0.0000
    761 H5         3.1469     2.9197  3194.0011 H        973 DC      0.0000
    762 H6         5.1665     1.5861  3193.8346 H        973 DC      0.0000
    763 H41       -0.1906     1.3914  3194.0940 H        973 DC      0.0000
    764 H42        0.7257     2.8812  3194.1297 H        973 DC      0.0000
    765 P          8.3057    -2.0775  3191.4606 P.3      972 DA      0.0000
    766 OP1        9.4913    -2.9337  3191.0712 O.co2    972 DA      0.0000
    767 OP2        8.3138    -0.7029  3190.8906 O.co2    972 DA      0.0000
    768 O5'        6.9825    -2.9552  3191.2951 O.3      972 DA      0.0000
    769 C5'        7.0216    -4.3601  3191.7605 C.3      972 DA      0.0000
    770 C4'        5.9632    -5.0067  3190.8833 C.3      972 DA      0.0000
    771 O4'        4.6853    -4.4152  3191.1506 O.3      972 DA      0.0000
    772 C3'        6.1909    -4.7750  3189.3789 C.3      972 DA      0.0000
    773 O3'        5.4332    -5.6782  3188.5898 O.3      972 DA      0.0000
    774 C2'        5.5129    -3.4052  3189.1914 C.3      972 DA      0.0000
    775 C1'        4.2131    -3.7969  3189.9460 C.3      972 DA      0.0000
    776 N9         3.4830    -2.5418  3190.0915 N.ar     972 DA      0.0000
    777 C8         4.0301    -1.2803  3190.1643 C.ar     972 DA      0.0000
    778 N7         3.1349    -0.3315  3190.2790 N.ar     972 DA      0.0000
    779 C5         1.9135    -1.0285  3190.2726 C.ar     972 DA      0.0000
    780 C6         0.5738    -0.5622  3190.3725 C.ar     972 DA      0.0000
    781 N6         0.2427     0.7264  3190.4954 N.pl3    972 DA      0.0000
    782 N1        -0.3686    -1.5454  3190.3374 N.ar     972 DA      0.0000
    783 C2        -0.0330    -2.8534  3190.2185 C.ar     972 DA      0.0000
    784 N3         1.2001    -3.3597  3190.1270 N.ar     972 DA      0.0000
    785 C4         2.1211    -2.3806  3190.1545 C.ar     972 DA      0.0000
    786 H5'        8.0020    -4.8063  3191.5938 H        972 DA      0.0000
    787 H5''       6.7426    -4.4253  3192.8122 H        972 DA      0.0000
    788 H4'        5.9218    -6.0767  3191.0872 H        972 DA      0.0000
    789 H3'        7.2469    -4.7631  3189.1092 H        972 DA      0.0000
    790 H2'        6.0560    -2.5921  3189.6730 H        972 DA      0.0000
    791 H2''       5.3193    -3.1925  3188.1400 H        972 DA      0.0000
    792 H1'        3.6325    -4.5074  3189.3576 H        972 DA      0.0000
    793 H8         5.0930    -1.0919  3190.1303 H        972 DA      0.0000
    794 H2        -0.8485    -3.5610  3190.1953 H        972 DA      0.0000
    795 H61        0.9639     1.4330  3190.5201 H        972 DA      0.0000
    796 H62       -0.7288     0.9939  3190.5635 H        972 DA      0.0000
    797 P          6.1264    -6.5381  3187.4489 P.3      971 DC      0.0000
    798 OP1        6.6835    -7.7172  3188.2292 O.co2    971 DC      0.0000
    799 OP2        7.1582    -5.7888  3186.7233 O.co2    971 DC      0.0000
    800 O5'        4.8378    -6.8411  3186.4730 O.3      971 DC      0.0000
    801 C5'        3.6514    -7.4168  3187.1420 C.3      971 DC      0.0000
    802 C4'        2.4156    -6.8460  3186.4980 C.3      971 DC      0.0000
    803 O4'        1.9271    -5.6719  3187.1351 O.3      971 DC      0.0000
    804 C3'        2.6276    -6.4754  3185.0202 C.3      971 DC      0.0000
    805 O3'        1.4733    -6.6535  3184.2089 O.3      971 DC      0.0000
    806 C2'        2.9043    -4.9451  3185.1858 C.3      971 DC      0.0000
    807 C1'        1.6286    -4.7323  3186.0814 C.3      971 DC      0.0000
    808 N1         1.5130    -3.3173  3186.3193 N.am     971 DC      0.0000
    809 C2         0.2673    -2.8005  3186.6365 C.2      971 DC      0.0000
    810 O2        -0.8156    -3.3798  3186.7769 O.2      971 DC      0.0000
    811 N3         0.1639    -1.4516  3186.8347 N.2      971 DC      0.0000
    812 C4         1.2417    -0.6175  3186.7187 C.2      971 DC      0.0000
    813 N4         1.0941     0.6989  3186.9348 N.pl3    971 DC      0.0000
    814 C5         2.5135    -1.1624  3186.3891 C.2      971 DC      0.0000
    815 C6         2.5892    -2.4845  3186.1974 C.2      971 DC      0.0000
    816 H5'        3.6565    -8.5011  3187.0306 H        971 DC      0.0000
    817 H5''       3.6659    -7.1574  3188.2006 H        971 DC      0.0000
    818 H4'        1.6329    -7.6032  3186.5447 H        971 DC      0.0000
    819 H3'        3.4911    -6.9920  3184.6012 H        971 DC      0.0000
    820 H2'        3.8387    -4.7268  3185.7029 H        971 DC      0.0000
    821 H2''       2.8296    -4.4128  3184.2376 H        971 DC      0.0000
    822 H1'        0.7491    -5.0753  3185.5365 H        971 DC      0.0000
    823 H5         3.3858    -0.5323  3186.2969 H        971 DC      0.0000
    824 H6         3.5450    -2.9130  3185.9341 H        971 DC      0.0000
    825 H41        0.1871     1.0726  3187.1753 H        971 DC      0.0000
    826 H42        1.8900     1.3159  3186.8568 H        971 DC      0.0000
    827 P         -7.1839     6.9837  3220.8081 P.3      981 DG      0.0000
    828 OP1       -7.6281     8.3995  3220.8065 O.co2    981 DG      0.0000
    829 OP2       -6.0747     6.8685  3221.8637 O.co2    981 DG      0.0000
    830 O5'       -8.3126     5.8766  3220.9864 O.3      981 DG      0.0000
    831 C5'       -8.9271     5.0364  3219.9864 C.3      981 DG      0.0000
    832 C4'       -8.8916     3.6069  3220.4852 C.3      981 DG      0.0000
    833 O4'       -7.7279     2.9273  3220.0661 O.3      981 DG      0.0000
    834 C3'       -9.0149     3.3737  3221.9774 C.3      981 DG      0.0000
    835 O3'      -10.0948     2.4528  3222.2894 O.3      981 DG      0.0000
    836 C2'       -7.6501     2.8634  3222.3993 C.3      981 DG      0.0000
    837 C1'       -7.1069     2.2255  3221.1437 C.3      981 DG      0.0000
    838 N9        -5.6373     2.3384  3221.1146 N.ar     981 DG      0.0000
    839 C8        -4.8423     3.4366  3221.3435 C.ar     981 DG      0.0000
    840 N7        -3.5540     3.1945  3221.2538 N.ar     981 DG      0.0000
    841 C5        -3.4929     1.8400  3220.9368 C.ar     981 DG      0.0000
    842 C6        -2.3961     0.9721  3220.7109 C.2      981 DG      0.0000
    843 O6        -1.1946     1.2406  3220.7321 O.2      981 DG      0.0000
    844 N1        -2.7281    -0.3248  3220.4294 N.am     981 DG      0.0000
    845 C2        -3.9518    -0.7432  3220.3687 C.2      981 DG      0.0000
    846 N2        -3.9846    -1.9842  3220.0719 N.pl3    981 DG      0.0000
    847 N3        -5.0967     0.0324  3220.5775 N.2      981 DG      0.0000
    848 C4        -4.7633     1.3021  3220.8500 C.ar     981 DG      0.0000
    849 H5'       -9.9600     5.3464  3219.8277 H        981 DG      0.0000
    850 H5''      -8.3727     5.1131  3219.0511 H        981 DG      0.0000
    851 H4'       -9.7342     3.0951  3220.0205 H        981 DG      0.0000
    852 H3'       -9.2064     4.3263  3222.4714 H        981 DG      0.0000
    853 H2'       -7.0118     3.6842  3222.7263 H        981 DG      0.0000
    854 H2''      -7.7498     2.1206  3223.1908 H        981 DG      0.0000
    855 H1'       -7.3949     1.1747  3221.1117 H        981 DG      0.0000
    856 H8        -5.2418     4.4126  3221.5766 H        981 DG      0.0000
    857 H1        -1.9840    -0.9866  3220.2610 H        981 DG      0.0000
    858 H21       -3.1235    -2.4918  3219.9276 H        981 DG      0.0000
    859 H22       -4.8717    -2.4585  3219.9815 H        981 DG      0.0000
    860 P        -10.2780     1.8061  3223.7180 P.3      982 DT      0.0000
    861 OP1      -11.6917     1.7062  3224.2296 O.co2    982 DT      0.0000
    862 OP2       -9.6017     2.8399  3224.6366 O.co2    982 DT      0.0000
    863 O5'       -9.4609     0.4892  3223.7465 O.3      982 DT      0.0000
    864 C5'      -10.0667    -0.8249  3223.6026 C.3      982 DT      0.0000
    865 C4'       -8.9016    -1.7907  3223.6601 C.3      982 DT      0.0000
    866 O4'       -7.6710    -1.1583  3223.3849 O.3      982 DT      0.0000
    867 C3'       -8.6820    -2.4992  3224.9728 C.3      982 DT      0.0000
    868 O3'       -8.9102    -3.9035  3224.7846 O.3      982 DT      0.0000
    869 C2'       -7.2327    -2.2129  3225.3650 C.3      982 DT      0.0000
    870 C1'       -6.6226    -1.9528  3224.0123 C.3      982 DT      0.0000
    871 N1        -5.4325    -1.1074  3224.1089 N.am     982 DT      0.0000
    872 C2        -4.2172    -1.7047  3223.9110 C.2      982 DT      0.0000
    873 O2        -4.1028    -2.9049  3223.6728 O.2      982 DT      0.0000
    874 N3        -3.1089    -0.9052  3223.9921 N.am     982 DT      0.0000
    875 C4        -3.1764     0.4209  3224.2480 C.2      982 DT      0.0000
    876 O4        -2.0728     1.0247  3224.2932 O.2      982 DT      0.0000
    877 C5        -4.4573     1.0291  3224.4477 C.2      982 DT      0.0000
    878 C7        -4.5757     2.4920  3224.7276 C.3      982 DT      0.0000
    879 C6        -5.5358     0.2395  3224.3662 C.2      982 DT      0.0000
    880 H5'      -10.7663    -1.0172  3224.4160 H        982 DT      0.0000
    881 H5''     -10.5747    -0.9031  3222.6414 H        982 DT      0.0000
    882 H4'       -9.0624    -2.5507  3222.8955 H        982 DT      0.0000
    883 H3'       -9.3607    -2.1064  3225.7299 H        982 DT      0.0000
    884 H2'       -7.1574    -1.3402  3226.0138 H        982 DT      0.0000
    885 H2''      -6.7783    -3.0855  3225.8343 H        982 DT      0.0000
    886 H1'       -6.4263    -2.8760  3223.4670 H        982 DT      0.0000
    887 H3        -2.2004    -1.3245  3223.8546 H        982 DT      0.0000
    888 H6        -6.5150     0.6730  3224.5065 H        982 DT      0.0000
    889 H71       -4.8890     3.0115  3223.8220 H        982 DT      0.0000
    890 H72       -3.6098     2.8789  3225.0523 H        982 DT      0.0000
    891 H73       -5.3143     2.6531  3225.5129 H        982 DT      0.0000
    892 P         -9.6237    -4.6097  3226.0645 P.3      983 DG      0.0000
    893 OP1      -10.5233    -5.6097  3225.3495 O.co2    983 DG      0.0000
    894 OP2      -10.3446    -3.5994  3226.8181 O.co2    983 DG      0.0000
    895 O5'       -8.2571    -5.2616  3226.6741 O.3      983 DG      0.0000
    896 C5'       -7.4906    -5.8992  3225.5835 C.3      983 DG      0.0000
    897 C4'       -6.1128    -6.1862  3226.1035 C.3      983 DG      0.0000
    898 O4'       -5.1528    -5.1797  3225.9229 O.3      983 DG      0.0000
    899 C3'       -6.1105    -6.5373  3227.6115 C.3      983 DG      0.0000
    900 O3'       -5.4428    -7.8124  3227.7704 O.3      983 DG      0.0000
    901 C2'       -5.4464    -5.3437  3228.2641 C.3      983 DG      0.0000
    902 C1'       -4.4667    -4.9037  3227.1826 C.3      983 DG      0.0000
    903 N9        -4.0795    -3.4987  3227.3521 N.ar     983 DG      0.0000
    904 C8        -4.8636    -2.4298  3227.6883 C.ar     983 DG      0.0000
    905 N7        -4.2223    -1.2851  3227.7741 N.ar     983 DG      0.0000
    906 C5        -2.9149    -1.6346  3227.4440 C.ar     983 DG      0.0000
    907 C6        -1.7347    -0.8430  3227.3497 C.2      983 DG      0.0000
    908 O6        -1.6124     0.3759  3227.5420 O.2      983 DG      0.0000
    909 N1        -0.6018    -1.5487  3227.0146 N.am     983 DG      0.0000
    910 C2        -0.6292    -2.8915  3226.7909 C.2      983 DG      0.0000
    911 N2         0.5661    -3.4111  3226.4821 N.pl3    983 DG      0.0000
    912 N3        -1.7046    -3.6727  3226.8619 N.2      983 DG      0.0000
    913 C4        -2.8125    -2.9853  3227.1885 C.ar     983 DG      0.0000
    914 H5'       -7.9751    -6.8282  3225.2830 H        983 DG      0.0000
    915 H5''      -7.4295    -5.2226  3224.7311 H        983 DG      0.0000
    916 H4'       -5.7514    -7.0671  3225.5729 H        983 DG      0.0000
    917 H3'       -7.1379    -6.6194  3227.9663 H        983 DG      0.0000
    918 H2'       -6.1699    -4.5596  3228.4871 H        983 DG      0.0000
    919 H2''      -4.9142    -5.6446  3229.1665 H        983 DG      0.0000
    920 H1'       -3.5734    -5.5255  3227.2415 H        983 DG      0.0000
    921 H8        -5.9247    -2.5187  3227.8689 H        983 DG      0.0000
    922 H1         0.2761    -1.0561  3226.9323 H        983 DG      0.0000
    923 H21        1.3788    -2.8136  3226.4318 H        983 DG      0.0000
    924 H22        0.6547    -4.4006  3226.2994 H        983 DG      0.0000
    925 P         -5.3615    -8.5262  3229.1588 P.3      984 DA      0.0000
    926 OP1       -6.4885    -9.4409  3229.5142 O.co2    984 DA      0.0000
    927 OP2       -5.4943    -7.2401  3230.0546 O.co2    984 DA      0.0000
    928 O5'       -3.8729    -9.0128  3229.4079 O.3      984 DA      0.0000
    929 C5'       -2.9043    -9.2630  3228.3789 C.3      984 DA      0.0000
    930 C4'       -1.6306    -8.5823  3228.8532 C.3      984 DA      0.0000
    931 O4'       -1.7600    -7.1795  3228.7628 O.3      984 DA      0.0000
    932 C3'       -1.1875    -8.8963  3230.2823 C.3      984 DA      0.0000
    933 O3'        0.2185    -9.2145  3230.3345 O.3      984 DA      0.0000
    934 C2'       -1.5352    -7.5962  3231.0177 C.3      984 DA      0.0000
    935 C1'       -1.1441    -6.5963  3229.9401 C.3      984 DA      0.0000
    936 N9        -1.6680    -5.2459  3230.1685 N.ar     984 DA      0.0000
    937 C8        -2.9500    -4.8262  3230.3843 C.ar     984 DA      0.0000
    938 N7        -3.0647    -3.5272  3230.5493 N.ar     984 DA      0.0000
    939 C5        -1.7670    -3.0583  3230.4091 C.ar     984 DA      0.0000
    940 C6        -1.2340    -1.7517  3230.4570 C.ar     984 DA      0.0000
    941 N6        -1.9551    -0.6497  3230.6768 N.pl3    984 DA      0.0000
    942 N1         0.1163    -1.6661  3230.2672 N.ar     984 DA      0.0000
    943 C2         0.8665    -2.7709  3230.0495 C.ar     984 DA      0.0000
    944 N3         0.4343    -4.0301  3229.9912 N.ar     984 DA      0.0000
    945 C4        -0.8965    -4.0953  3230.1781 C.ar     984 DA      0.0000
    946 H5'       -3.2349    -8.8368  3227.4317 H        984 DA      0.0000
    947 H5''      -2.7393   -10.3351  3228.2711 H        984 DA      0.0000
    948 H4'       -0.8253    -8.8839  3228.1834 H        984 DA      0.0000
    949 H3'       -1.7742    -9.7225  3230.6837 H        984 DA      0.0000
    950 H2'       -2.5956    -7.5375  3231.2632 H        984 DA      0.0000
    951 H2''      -0.9193    -7.4732  3231.9086 H        984 DA      0.0000
    952 H1'       -0.0605    -6.5676  3229.8256 H        984 DA      0.0000
    953 H8        -3.7929    -5.5007  3230.4164 H        984 DA      0.0000
    954 H2         1.9260    -2.6161  3229.9081 H        984 DA      0.0000
    955 H61       -2.9584    -0.5856  3230.5794 H        984 DA      0.0000
    956 H62       -1.5238     0.2473  3230.5053 H        984 DA      0.0000
    957 P          0.8522   -10.2114  3231.4760 P.3      985 DA      0.0000
    958 OP1        1.4670   -11.4166  3230.8089 O.co2    985 DA      0.0000
    959 OP2       -0.3379   -10.4857  3232.3069 O.co2    985 DA      0.0000
    960 O5'        2.1030    -9.3755  3232.0068 O.3      985 DA      0.0000
    961 C5'        3.2017    -8.9902  3231.1825 C.3      985 DA      0.0000
    962 C4'        3.7439    -7.6714  3231.7048 C.3      985 DA      0.0000
    963 O4'        2.7478    -6.6885  3231.7330 O.3      985 DA      0.0000
    964 C3'        4.4053    -7.6787  3233.0721 C.3      985 DA      0.0000
    965 O3'        5.7888    -7.3360  3232.9943 O.3      985 DA      0.0000
    966 C2'        3.5417    -6.7197  3233.9009 C.3      985 DA      0.0000
    967 C1'        2.9054    -5.8276  3232.9070 C.3      985 DA      0.0000
    968 N9         1.5821    -5.2358  3233.1751 N.ar     985 DA      0.0000
    969 C8         0.3523    -5.8372  3233.2903 C.ar     985 DA      0.0000
    970 N7        -0.6419    -4.9980  3233.4596 N.ar     985 DA      0.0000
    971 C5        -0.0311    -3.7486  3233.4226 C.ar     985 DA      0.0000
    972 C6        -0.5591    -2.4316  3233.5430 C.ar     985 DA      0.0000
    973 N6        -1.8370    -2.1286  3233.7347 N.pl3    985 DA      0.0000
    974 N1         0.3569    -1.4143  3233.4449 N.ar     985 DA      0.0000
    975 C2         1.6806    -1.6870  3233.2558 C.ar     985 DA      0.0000
    976 N3         2.2381    -2.8877  3233.1479 N.ar     985 DA      0.0000
    977 C4         1.3264    -3.8765  3233.2398 C.ar     985 DA      0.0000
    978 H5'        2.8662    -8.8695  3230.1525 H        985 DA      0.0000
    979 H5''       3.9804    -9.7516  3231.2285 H        985 DA      0.0000
    980 H4'        4.4974    -7.3360  3230.9921 H        985 DA      0.0000
    981 H3'        4.3180    -8.6794  3233.4953 H        985 DA      0.0000
    982 H2'        2.7863    -7.2706  3234.4611 H        985 DA      0.0000
    983 H2''       4.1674    -6.1411  3234.5804 H        985 DA      0.0000
    984 H1'        3.6022    -5.0264  3232.6610 H        985 DA      0.0000
    985 H8         0.2157    -6.9076  3233.2454 H        985 DA      0.0000
    986 H2         2.3443    -0.8378  3233.1866 H        985 DA      0.0000
    987 H61       -2.5090    -2.8085  3234.0609 H        985 DA      0.0000
    988 H62       -2.1481    -1.1860  3233.5479 H        985 DA      0.0000
    989 P          6.9641    -7.9265  3233.9505 P.3      986 DT      0.0000
    990 OP1        8.2209    -8.2564  3233.1532 O.co2    986 DT      0.0000
    991 OP2        6.4608    -9.0081  3234.7711 O.co2    986 DT      0.0000
    992 O5'        7.4356    -6.5772  3234.7642 O.3      986 DT      0.0000
    993 C5'        7.4610    -5.4236  3233.8191 C.3      986 DT      0.0000
    994 C4'        6.8682    -4.2830  3234.6068 C.3      986 DT      0.0000
    995 O4'        5.4756    -4.3907  3234.7988 O.3      986 DT      0.0000
    996 C3'        7.4636    -4.1826  3236.0234 C.3      986 DT      0.0000
    997 O3'        8.4838    -3.2012  3236.0251 O.3      986 DT      0.0000
    998 C2'        6.2691    -3.8683  3236.9207 C.3      986 DT      0.0000
    999 C1'        5.2205    -3.4809  3235.9561 C.3      986 DT      0.0000
   1000 N1         3.8137    -3.6233  3236.2958 N.am     986 DT      0.0000
   1001 C2         3.0786    -2.4500  3236.4338 C.2      986 DT      0.0000
   1002 O2         3.6403    -1.3658  3236.3457 O.2      986 DT      0.0000
   1003 N3         1.7441    -2.5522  3236.6877 N.am     986 DT      0.0000
   1004 C4         1.1060    -3.7535  3236.8079 C.2      986 DT      0.0000
   1005 O4        -0.1405    -3.7655  3237.0631 O.2      986 DT      0.0000
   1006 C5         1.8794    -4.9486  3236.6363 C.2      986 DT      0.0000
   1007 C7         1.2208    -6.2975  3236.7238 C.3      986 DT      0.0000
   1008 C6         3.1947    -4.8422  3236.3805 C.2      986 DT      0.0000
   1009 H5'        8.4830    -5.1943  3233.5175 H        986 DT      0.0000
   1010 H5''       6.8474    -5.6380  3232.9441 H        986 DT      0.0000
   1011 H4'        7.0742    -3.3525  3234.0777 H        986 DT      0.0000
   1012 H3'        7.8869    -5.1460  3236.3078 H        986 DT      0.0000
   1013 H2'        5.9688    -4.7452  3237.4941 H        986 DT      0.0000
   1014 H2''       6.5005    -3.0373  3237.5871 H        986 DT      0.0000
   1015 H1'        5.4005    -2.4537  3235.6387 H        986 DT      0.0000
   1016 H3         1.2046    -1.7048  3236.7915 H        986 DT      0.0000
   1017 H6         3.7779    -5.7400  3236.2384 H        986 DT      0.0000
   1018 H71        0.1593    -6.1709  3236.9369 H        986 DT      0.0000
   1019 H72        1.3408    -6.8223  3235.7760 H        986 DT      0.0000
   1020 H73        1.6849    -6.8773  3237.5216 H        986 DT      0.0000
   1021 P          9.5211    -2.8712  3237.1317 P.3      987 DT      0.0000
   1022 OP1       10.7566    -2.1617  3236.5196 O.co2    987 DT      0.0000
   1023 OP2        9.8849    -4.1666  3237.7617 O.co2    987 DT      0.0000
   1024 O5'        8.8182    -1.7314  3238.0140 O.3      987 DT      0.0000
   1025 C5'        8.7076    -0.4697  3237.3023 C.3      987 DT      0.0000
   1026 C4'        7.6814     0.3717  3237.9784 C.3      987 DT      0.0000
   1027 O4'        6.3740    -0.1875  3237.9551 O.3      987 DT      0.0000
   1028 C3'        7.9962     0.6996  3239.4451 C.3      987 DT      0.0000
   1029 O3'        7.7287     2.0637  3239.7091 O.3      987 DT      0.0000
   1030 C2'        6.9650    -0.1882  3240.1814 C.3      987 DT      0.0000
   1031 C1'        5.7813     0.0913  3239.2778 C.3      987 DT      0.0000
   1032 N1         4.6749    -0.7994  3239.5755 N.am     987 DT      0.0000
   1033 C2         3.3961    -0.2693  3239.6304 C.2      987 DT      0.0000
   1034 O2         3.2427     0.9383  3239.4419 O.2      987 DT      0.0000
   1035 N3         2.3566    -1.1156  3239.8963 N.am     987 DT      0.0000
   1036 C4         2.5406    -2.4482  3240.1033 C.2      987 DT      0.0000
   1037 O4         1.5287    -3.1726  3240.3266 O.2      987 DT      0.0000
   1038 C5         3.8601    -2.9833  3240.0382 C.2      987 DT      0.0000
   1039 C7         4.1435    -4.4422  3240.2481 C.3      987 DT      0.0000
   1040 C6         4.8694    -2.1380  3239.7771 C.2      987 DT      0.0000
   1041 H5'        9.6689     0.0439  3237.3147 H        987 DT      0.0000
   1042 H5''       8.4060    -0.6564  3236.2716 H        987 DT      0.0000
   1043 H4'        7.6360     1.3183  3237.4399 H        987 DT      0.0000
   1044 H3'        9.0196     0.4312  3239.7075 H        987 DT      0.0000
   1045 H2'        7.2481    -1.2408  3240.1802 H        987 DT      0.0000
   1046 H2''       6.7839     0.1719  3241.1941 H        987 DT      0.0000
   1047 H1'        5.4722     1.1338  3239.3535 H        987 DT      0.0000
   1048 H3         1.4203    -0.7394  3239.9407 H        987 DT      0.0000
   1049 H6         5.8742    -2.5301  3239.7240 H        987 DT      0.0000
   1050 H71        3.2104    -4.9692  3240.4470 H        987 DT      0.0000
   1051 H72        4.6093    -4.8540  3239.3528 H        987 DT      0.0000
   1052 H73        4.8170    -4.5631  3241.0965 H        987 DT      0.0000
   1053 P          8.5163     3.2774  3240.3171 P.3      988 DC      0.0000
   1054 OP1        8.8835     4.2898  3239.2491 O.co2    988 DC      0.0000
   1055 OP2        9.6463     2.6803  3241.0520 O.co2    988 DC      0.0000
   1056 O5'        7.2616     3.9126  3241.1431 O.3      988 DC      0.0000
   1057 C5'        6.2064     4.0430  3240.1208 C.3      988 DC      0.0000
   1058 C4'        4.9795     4.5588  3240.8173 C.3      988 DC      0.0000
   1059 O4'        4.0414     3.5577  3241.0642 O.3      988 DC      0.0000
   1060 C3'        5.2425     5.3251  3242.1088 C.3      988 DC      0.0000
   1061 O3'        4.6864     6.6309  3242.0291 O.3      988 DC      0.0000
   1062 C2'        4.6821     4.3620  3243.1575 C.3      988 DC      0.0000
   1063 C1'        3.6009     3.6349  3242.4611 C.3      988 DC      0.0000
   1064 N1         3.4279     2.2172  3242.7932 N.am     988 DC      0.0000
   1065 C2         2.1212     1.8073  3243.0490 C.2      988 DC      0.0000
   1066 O2         1.1844     2.6118  3243.0535 O.2      988 DC      0.0000
   1067 N3         1.9176     0.4773  3243.3229 N.2      988 DC      0.0000
   1068 C4         2.9469    -0.4175  3243.3130 C.2      988 DC      0.0000
   1069 N4         2.6487    -1.6821  3243.5898 N.pl3    988 DC      0.0000
   1070 C5         4.2639     0.0097  3243.0349 C.2      988 DC      0.0000
   1071 C6         4.4478     1.3195  3242.7701 C.2      988 DC      0.0000
   1072 H5'        6.5198     4.7440  3239.3472 H        988 DC      0.0000
   1073 H5''       5.9986     3.0696  3239.6766 H        988 DC      0.0000
   1074 H4'        4.5075     5.2622  3240.1314 H        988 DC      0.0000
   1075 H3'        6.3195     5.4112  3242.2521 H        988 DC      0.0000
   1076 H2'        5.4541     3.6707  3243.4954 H        988 DC      0.0000
   1077 H2''       4.2782     4.9187  3244.0031 H        988 DC      0.0000
   1078 H1'        2.6557     4.1718  3242.5421 H        988 DC      0.0000
   1079 H5         5.0911    -0.6846  3243.0344 H        988 DC      0.0000
   1080 H6         5.4419     1.6675  3242.5311 H        988 DC      0.0000
   1081 H41        1.6938    -1.9439  3243.7890 H        988 DC      0.0000
   1082 H42        3.3770    -2.3818  3243.6011 H        988 DC      0.0000
   1083 P          5.0548     7.8924  3242.9811 P.3      989 DA      0.0000
   1084 OP1        4.7546     9.1494  3242.1874 O.co2    989 DA      0.0000
   1085 OP2        6.4876     7.7940  3243.3267 O.co2    989 DA      0.0000
   1086 O5'        4.0576     7.7151  3244.2782 O.3      989 DA      0.0000
   1087 C5'        2.6355     7.5616  3243.9829 C.3      989 DA      0.0000
   1088 C4'        1.8660     7.3109  3245.2382 C.3      989 DA      0.0000
   1089 O4'        1.5289     5.9416  3245.4803 O.3      989 DA      0.0000
   1090 C3'        2.5770     7.7055  3246.5434 C.3      989 DA      0.0000
   1091 O3'        1.5953     7.8424  3247.5734 O.3      989 DA      0.0000
   1092 C2'        3.4265     6.4369  3246.7580 C.3      989 DA      0.0000
   1093 C1'        2.2858     5.4301  3246.5748 C.3      989 DA      0.0000
   1094 N9         2.8406     4.0903  3246.4804 N.ar     989 DA      0.0000
   1095 C8         4.1363     3.6691  3246.3646 C.ar     989 DA      0.0000
   1096 N7         4.2972     2.3581  3246.3460 N.ar     989 DA      0.0000
   1097 C5         2.9993     1.8787  3246.4535 C.ar     989 DA      0.0000
   1098 C6         2.4730     0.5639  3246.4881 C.ar     989 DA      0.0000
   1099 N6         3.1993    -0.5362  3246.4028 N.pl3    989 DA      0.0000
   1100 N1         1.1178     0.4619  3246.6206 N.ar     989 DA      0.0000
   1101 C2         0.3261     1.5765  3246.7008 C.ar     989 DA      0.0000
   1102 N3         0.7449     2.8395  3246.6710 N.ar     989 DA      0.0000
   1103 C4         2.0924     2.9217  3246.5480 C.ar     989 DA      0.0000
   1104 H5'        2.2664     8.4726  3243.5118 H        989 DA      0.0000
   1105 H5''       2.4973     6.7220  3243.3016 H        989 DA      0.0000
   1106 H4'        0.9370     7.8780  3245.1793 H        989 DA      0.0000
   1107 H3'        3.1882     8.6008  3246.4298 H        989 DA      0.0000
   1108 H2'        4.2086     6.3247  3246.0073 H        989 DA      0.0000
   1109 H2''       3.8348     6.3968  3247.7679 H        989 DA      0.0000
   1110 H1'        1.6574     5.4704  3247.4644 H        989 DA      0.0000
   1111 H8         4.9661     4.3567  3246.2936 H        989 DA      0.0000
   1112 H2        -0.7374     1.4156  3246.7973 H        989 DA      0.0000
   1113 H61        3.0195    -1.5136  3246.5829 H        989 DA      0.0000
   1114 H62        4.1429    -0.3611  3246.0881 H        989 DA      0.0000
   1115 P          0.7135     9.1702  3247.7138 P.3      990 DC      0.0000
   1116 OP1        0.6815     9.9886  3246.4687 O.co2    990 DC      0.0000
   1117 OP2        1.3836     9.8766  3248.8567 O.co2    990 DC      0.0000
   1118 O5'       -0.7434     8.6118  3247.9970 O.3      990 DC      0.0000
   1119 C5'       -1.6061     8.1608  3246.9093 C.3      990 DC      0.0000
   1120 C4'       -2.4607     7.1014  3247.6142 C.3      990 DC      0.0000
   1121 O4'       -1.6150     6.0188  3247.9262 O.3      990 DC      0.0000
   1122 C3'       -3.0799     7.5818  3248.9241 C.3      990 DC      0.0000
   1123 O3'       -4.5049     7.3481  3248.9920 O.3      990 DC      0.0000
   1124 C2'       -2.2891     6.8313  3250.0063 C.3      990 DC      0.0000
   1125 C1'       -1.9422     5.5672  3249.3302 C.3      990 DC      0.0000
   1126 N1        -0.7384     4.8191  3249.6830 N.am     990 DC      0.0000
   1127 C2        -0.8740     3.4323  3249.6561 C.2      990 DC      0.0000
   1128 O2        -1.9452     2.8763  3249.4492 O.2      990 DC      0.0000
   1129 N3         0.2378     2.6908  3249.9092 N.2      990 DC      0.0000
   1130 C4         1.4490     3.2516  3250.1426 C.2      990 DC      0.0000
   1131 N4         2.4637     2.4207  3250.3735 N.pl3    990 DC      0.0000
   1132 C5         1.5774     4.6679  3250.1491 C.2      990 DC      0.0000
   1133 C6         0.4761     5.3931  3249.8997 C.2      990 DC      0.0000
   1134 H5'       -2.2198     8.9753  3246.5244 H        990 DC      0.0000
   1135 H5''      -1.0164     7.7114  3246.1103 H        990 DC      0.0000
   1136 H4'       -3.2494     6.7643  3246.9416 H        990 DC      0.0000
   1137 H3'       -2.8935     8.6505  3249.0300 H        990 DC      0.0000
   1138 H2'       -1.3938     7.3828  3250.2933 H        990 DC      0.0000
   1139 H2''      -2.9170     6.6405  3250.8766 H        990 DC      0.0000
   1140 H1'       -2.8053     4.9017  3249.3169 H        990 DC      0.0000
   1141 H5         2.5269     5.1427  3250.3476 H        990 DC      0.0000
   1142 H6         0.5565     6.4696  3249.8700 H        990 DC      0.0000
   1143 H41        2.3113     1.4223  3250.3625 H        990 DC      0.0000
   1144 H42        3.3856     2.7889  3250.5597 H        990 DC      0.0000
   1145 P          3.2241    -7.8519  3251.9515 P.3      990 DG      0.0000
   1146 OP1        3.8495    -9.1987  3252.1303 O.co2    990 DG      0.0000
   1147 OP2        3.8968    -7.0211  3250.8667 O.co2    990 DG      0.0000
   1148 O5'        1.6007    -8.0272  3251.7443 O.3      990 DG      0.0000
   1149 C5'        0.6973    -7.6623  3252.8401 C.3      990 DG      0.0000
   1150 C4'       -0.5319    -7.0156  3252.2058 C.3      990 DG      0.0000
   1151 O4'       -0.4022    -5.6233  3252.1100 O.3      990 DG      0.0000
   1152 C3'       -0.8533    -7.5143  3250.7995 C.3      990 DG      0.0000
   1153 O3'       -2.2652    -7.6794  3250.5325 O.3      990 DG      0.0000
   1154 C2'       -0.2313    -6.4333  3249.8972 C.3      990 DG      0.0000
   1155 C1'       -0.5019    -5.1854  3250.7210 C.3      990 DG      0.0000
   1156 N9         0.5010    -4.1418  3250.4477 N.ar     990 DG      0.0000
   1157 C8         1.8581    -4.2942  3250.2910 C.ar     990 DG      0.0000
   1158 N7         2.4964    -3.1753  3250.0726 N.ar     990 DG      0.0000
   1159 C5         1.4931    -2.2136  3250.0974 C.ar     990 DG      0.0000
   1160 C6         1.5426    -0.8027  3249.9410 C.2      990 DG      0.0000
   1161 O6         2.5546    -0.1150  3249.7441 O.2      990 DG      0.0000
   1162 N1         0.3213    -0.1813  3250.0279 N.am     990 DG      0.0000
   1163 C2        -0.8313    -0.8600  3250.2486 C.2      990 DG      0.0000
   1164 N2        -1.9375    -0.1239  3250.3119 N.pl3    990 DG      0.0000
   1165 N3        -0.9329    -2.1854  3250.4063 N.2      990 DG      0.0000
   1166 C4         0.2658    -2.7945  3250.3230 C.ar     990 DG      0.0000
   1167 H5'        0.4065    -8.5525  3253.3979 H        990 DG      0.0000
   1168 H5''       1.1887    -6.9521  3253.5050 H        990 DG      0.0000
   1169 H4'       -1.3902    -7.2298  3252.8425 H        990 DG      0.0000
   1170 H3'       -0.3425    -8.4620  3250.6290 H        990 DG      0.0000
   1171 H2'        0.8370    -6.5960  3249.7545 H        990 DG      0.0000
   1172 H2''      -0.7475    -6.3845  3248.9384 H        990 DG      0.0000
   1173 H1'       -1.5038    -4.8082  3250.5158 H        990 DG      0.0000
   1174 H8         2.3525    -5.2529  3250.3438 H        990 DG      0.0000
   1175 H1         0.2799     0.8223  3249.9231 H        990 DG      0.0000
   1176 H21       -1.8846     0.8781  3250.1968 H        990 DG      0.0000
   1177 H22       -2.8303    -0.5670  3250.4751 H        990 DG      0.0000
   1178 P         -2.7128    -7.4634  3249.0090 P.3      989 DT      0.0000
   1179 OP1       -3.9343    -8.2509  3248.6181 O.co2    989 DT      0.0000
   1180 OP2       -1.5043    -7.9632  3248.3085 O.co2    989 DT      0.0000
   1181 O5'       -3.0056    -5.8936  3248.8781 O.3      989 DT      0.0000
   1182 C5'       -4.3756    -5.4539  3249.1457 C.3      989 DT      0.0000
   1183 C4'       -4.6213    -4.1669  3248.3887 C.3      989 DT      0.0000
   1184 O4'       -3.4881    -3.3175  3248.3614 O.3      989 DT      0.0000
   1185 C3'       -5.0023    -4.3943  3246.9340 C.3      989 DT      0.0000
   1186 O3'       -6.0055    -3.4811  3246.4389 O.3      989 DT      0.0000
   1187 C2'       -3.6839    -4.2291  3246.2111 C.3      989 DT      0.0000
   1188 C1'       -3.1208    -3.0514  3246.9892 C.3      989 DT      0.0000
   1189 N1        -1.6581    -3.1041  3246.8379 N.am     989 DT      0.0000
   1190 C2        -0.9851    -1.8913  3246.9447 C.2      989 DT      0.0000
   1191 O2        -1.6056    -0.8506  3247.1344 O.2      989 DT      0.0000
   1192 N3         0.3762    -1.9203  3246.8245 N.am     989 DT      0.0000
   1193 C4         1.0562    -3.0810  3246.6069 C.2      989 DT      0.0000
   1194 O4         2.3258    -3.0081  3246.5094 O.2      989 DT      0.0000
   1195 C5         0.3396    -4.3071  3246.5006 C.2      989 DT      0.0000
   1196 C7         1.0796    -5.5938  3246.2716 C.3      989 DT      0.0000
   1197 C6        -0.9899    -4.2729  3246.6223 C.2      989 DT      0.0000
   1198 H5'       -5.0787    -6.2170  3248.8120 H        989 DT      0.0000
   1199 H5''      -4.5028    -5.2805  3250.2143 H        989 DT      0.0000
   1200 H4'       -5.4371    -3.6334  3248.8766 H        989 DT      0.0000
   1201 H3'       -5.3550    -5.4182  3246.8100 H        989 DT      0.0000
   1202 H2'       -3.0557    -5.1151  3246.3027 H        989 DT      0.0000
   1203 H2''      -3.8414    -3.9674  3245.1647 H        989 DT      0.0000
   1204 H1'       -3.5290    -2.1035  3246.6386 H        989 DT      0.0000
   1205 H3         0.8933    -1.0559  3246.8992 H        989 DT      0.0000
   1206 H6        -1.5495    -5.1936  3246.5482 H        989 DT      0.0000
   1207 H71        2.1484    -5.3915  3246.2029 H        989 DT      0.0000
   1208 H72        0.8913    -6.2736  3247.1025 H        989 DT      0.0000
   1209 H73        0.7358    -6.0504  3245.3435 H        989 DT      0.0000
   1210 P         -7.1538    -4.3921  3245.6605 P.3      988 DG      0.0000
   1211 OP1       -8.3103    -4.7606  3246.5317 O.co2    988 DG      0.0000
   1212 OP2       -6.2922    -5.5305  3245.2549 O.co2    988 DG      0.0000
   1213 O5'       -7.6779    -3.3376  3244.5797 O.3      988 DG      0.0000
   1214 C5'       -8.6008    -2.3023  3245.0031 C.3      988 DG      0.0000
   1215 C4'       -7.9542    -0.9975  3244.5554 C.3      988 DG      0.0000
   1216 O4'       -6.5673    -1.0372  3244.8261 O.3      988 DG      0.0000
   1217 C3'       -8.1221    -0.6886  3243.0677 C.3      988 DG      0.0000
   1218 O3'       -8.7283     0.5744  3242.8592 O.3      988 DG      0.0000
   1219 C2'       -6.7266    -0.8474  3242.4910 C.3      988 DG      0.0000
   1220 C1'       -5.8397    -0.5508  3243.6771 C.3      988 DG      0.0000
   1221 N9        -4.5523    -1.2398  3243.5535 N.ar     988 DG      0.0000
   1222 C8        -4.3173    -2.5762  3243.3947 C.ar     988 DG      0.0000
   1223 N7        -3.0453    -2.8827  3243.3166 N.ar     988 DG      0.0000
   1224 C5        -2.3940    -1.6604  3243.4541 C.ar     988 DG      0.0000
   1225 C6        -1.0163    -1.3171  3243.4636 C.2      988 DG      0.0000
   1226 O6        -0.0618    -2.0815  3243.3645 O.2      988 DG      0.0000
   1227 N1        -0.7639     0.0171  3243.6126 N.am     988 DG      0.0000
   1228 C2        -1.7725     0.9405  3243.7455 C.2      988 DG      0.0000
   1229 N2        -1.3862     2.2094  3243.8811 N.pl3    988 DG      0.0000
   1230 N3        -3.0848     0.6852  3243.7497 N.2      988 DG      0.0000
   1231 C4        -3.3193    -0.6406  3243.5990 C.ar     988 DG      0.0000
   1232 H5'       -9.5712    -2.4337  3244.5244 H        988 DG      0.0000
   1233 H5''      -8.7106    -2.3158  3246.0875 H        988 DG      0.0000
   1234 H4'       -8.3936    -0.1810  3245.1284 H        988 DG      0.0000
   1235 H3'       -8.7634    -1.4531  3242.6291 H        988 DG      0.0000
   1236 H2'       -6.5662    -1.8614  3242.1246 H        988 DG      0.0000
   1237 H2''      -6.5566    -0.1219  3241.6954 H        988 DG      0.0000
   1238 H1'       -5.6806     0.5240  3243.7641 H        988 DG      0.0000
   1239 H8        -5.1062    -3.3117  3243.3386 H        988 DG      0.0000
   1240 H1         0.1947     0.3348  3243.6254 H        988 DG      0.0000
   1241 H21       -0.4030     2.4406  3243.8821 H        988 DG      0.0000
   1242 H22       -2.0766     2.9394  3243.9829 H        988 DG      0.0000
   1243 P         -8.3850     1.8507  3241.9929 P.3      987 DA      0.0000
   1244 OP1       -8.7248     3.1263  3242.7742 O.co2    987 DA      0.0000
   1245 OP2       -9.2281     1.7415  3240.8002 O.co2    987 DA      0.0000
   1246 O5'       -6.7653     1.8598  3241.8181 O.3      987 DA      0.0000
   1247 C5'       -6.0972     2.4903  3242.9745 C.3      987 DA      0.0000
   1248 C4'       -5.3830     3.7099  3242.4467 C.3      987 DA      0.0000
   1249 O4'       -4.0152     3.4777  3242.2244 O.3      987 DA      0.0000
   1250 C3'       -5.9369     4.1911  3241.1062 C.3      987 DA      0.0000
   1251 O3'       -6.0279     5.5937  3241.0310 O.3      987 DA      0.0000
   1252 C2'       -5.0330     3.4879  3240.1096 C.3      987 DA      0.0000
   1253 C1'       -3.7489     3.1933  3240.8335 C.3      987 DA      0.0000
   1254 N9        -3.3030     1.8078  3240.6080 N.ar     987 DA      0.0000
   1255 C8        -4.0625     0.6729  3240.4216 C.ar     987 DA      0.0000
   1256 N7        -3.3627    -0.4208  3240.2257 N.ar     987 DA      0.0000
   1257 C5        -2.0489     0.0224  3240.3126 C.ar     987 DA      0.0000
   1258 C6        -0.8193    -0.6687  3240.2069 C.ar     987 DA      0.0000
   1259 N6        -0.7225    -1.9692  3239.9945 N.pl3    987 DA      0.0000
   1260 N1         0.3056     0.0886  3240.3307 N.ar     987 DA      0.0000
   1261 C2         0.2358     1.4340  3240.5552 C.ar     987 DA      0.0000
   1262 N3        -0.8857     2.1422  3240.6711 N.ar     987 DA      0.0000
   1263 C4        -1.9969     1.3788  3240.5349 C.ar     987 DA      0.0000
   1264 H5'       -6.8348     2.7807  3243.7226 H        987 DA      0.0000
   1265 H5''      -5.3775     1.7978  3243.4112 H        987 DA      0.0000
   1266 H4'       -5.4854     4.5149  3243.1744 H        987 DA      0.0000
   1267 H3'       -6.9415     3.7836  3240.9931 H        987 DA      0.0000
   1268 H2'       -4.8426     4.1340  3239.2528 H        987 DA      0.0000
   1269 H2''      -5.4957     2.5580  3239.7791 H        987 DA      0.0000
   1270 H1'       -2.9775     3.8750  3240.4753 H        987 DA      0.0000
   1271 H8        -5.1424     0.6824  3240.4355 H        987 DA      0.0000
   1272 H2         1.1696     1.9688  3240.6464 H        987 DA      0.0000
   1273 H61        0.0823    -2.4917  3240.3099 H        987 DA      0.0000
   1274 H62       -1.4663    -2.4493  3239.5082 H        987 DA      0.0000
   1275 P         -5.7385     6.5986  3239.8464 P.3      986 DA      0.0000
   1276 OP1       -5.7312     8.0658  3240.3663 O.co2    986 DA      0.0000
   1277 OP2       -6.8938     6.4195  3238.9127 O.co2    986 DA      0.0000
   1278 O5'       -4.2710     6.3236  3239.3437 O.3      986 DA      0.0000
   1279 C5'       -3.1851     7.1568  3239.7996 C.3      986 DA      0.0000
   1280 C4'       -1.9341     6.6752  3239.0976 C.3      986 DA      0.0000
   1281 O4'       -1.8411     5.2844  3238.9769 O.3      986 DA      0.0000
   1282 C3'       -1.7671     7.2461  3237.6901 C.3      986 DA      0.0000
   1283 O3'       -0.6194     8.1154  3237.6587 O.3      986 DA      0.0000
   1284 C2'       -1.7671     6.0087  3236.7906 C.3      986 DA      0.0000
   1285 C1'       -1.2373     4.9320  3237.6883 C.3      986 DA      0.0000
   1286 N9        -1.6604     3.5680  3237.3888 N.ar     986 DA      0.0000
   1287 C8        -2.9326     3.0712  3237.1940 C.ar     986 DA      0.0000
   1288 N7        -2.9694     1.7736  3236.9886 N.ar     986 DA      0.0000
   1289 C5        -1.6469     1.3820  3237.0631 C.ar     986 DA      0.0000
   1290 C6        -1.0280     0.1189  3236.9296 C.ar     986 DA      0.0000
   1291 N6        -1.6901    -1.0081  3236.6864 N.pl3    986 DA      0.0000
   1292 N1         0.3357     0.1179  3237.0785 N.ar     986 DA      0.0000
   1293 C2         1.0326     1.2426  3237.3310 C.ar     986 DA      0.0000
   1294 N3         0.5170     2.4677  3237.4698 N.ar     986 DA      0.0000
   1295 C4        -0.8267     2.4654  3237.3226 C.ar     986 DA      0.0000
   1296 H5'       -3.3799     8.1984  3239.5444 H        986 DA      0.0000
   1297 H5''      -3.0673     7.0551  3240.8784 H        986 DA      0.0000
   1298 H4'       -1.0806     7.0087  3239.6878 H        986 DA      0.0000
   1299 H3'       -2.6510     7.8390  3237.4551 H        986 DA      0.0000
   1300 H2'       -2.7756     5.7729  3236.4507 H        986 DA      0.0000
   1301 H2''      -1.1027     6.1565  3235.9392 H        986 DA      0.0000
   1302 H1'       -0.1505     4.9884  3237.7494 H        986 DA      0.0000
   1303 H8        -3.8167     3.6914  3237.2090 H        986 DA      0.0000
   1304 H2         2.1037     1.1457  3237.4300 H        986 DA      0.0000
   1305 H61       -1.2239    -1.8545  3236.9804 H        986 DA      0.0000
   1306 H62       -2.5956    -1.0173  3236.2392 H        986 DA      0.0000
   1307 P         -0.2233     8.8344  3236.2737 P.3      985 DT      0.0000
   1308 OP1        0.7603     9.9624  3236.3318 O.co2    985 DT      0.0000
   1309 OP2       -1.5809     9.1936  3235.7611 O.co2    985 DT      0.0000
   1310 O5'        0.5771     7.5527  3235.5706 O.3      985 DT      0.0000
   1311 C5'        1.3996     6.8974  3236.5829 C.3      985 DT      0.0000
   1312 C4'        2.4932     6.1401  3235.8999 C.3      985 DT      0.0000
   1313 O4'        2.2059     4.7856  3235.7195 O.3      985 DT      0.0000
   1314 C3'        2.8800     6.6974  3234.5387 C.3      985 DT      0.0000
   1315 O3'        4.2848     6.6072  3234.2714 O.3      985 DT      0.0000
   1316 C2'        1.9886     5.8248  3233.6453 C.3      985 DT      0.0000
   1317 C1'        2.1529     4.4629  3234.2854 C.3      985 DT      0.0000
   1318 N1         0.9666     3.6170  3234.0554 N.am     985 DT      0.0000
   1319 C2         1.1678     2.2534  3233.9338 C.2      985 DT      0.0000
   1320 O2         2.3009     1.7709  3233.9706 O.2      985 DT      0.0000
   1321 N3         0.0693     1.4546  3233.7664 N.am     985 DT      0.0000
   1322 C4        -1.1904     1.9651  3233.7178 C.2      985 DT      0.0000
   1323 O4        -2.1465     1.1544  3233.5323 O.2      985 DT      0.0000
   1324 C5        -1.3772     3.3679  3233.8662 C.2      985 DT      0.0000
   1325 C7        -2.7611     3.9702  3233.8141 C.3      985 DT      0.0000
   1326 C6        -0.2947     4.1337  3234.0392 C.2      985 DT      0.0000
   1327 H5'        1.8320     7.6477  3237.2450 H        985 DT      0.0000
   1328 H5''       0.7854     6.2087  3237.1629 H        985 DT      0.0000
   1329 H4'        3.3756     6.2015  3236.5370 H        985 DT      0.0000
   1330 H3'        2.5613     7.7372  3234.4667 H        985 DT      0.0000
   1331 H2'        0.9504     6.1555  3233.6759 H        985 DT      0.0000
   1332 H2''       2.3603     5.8165  3232.6207 H        985 DT      0.0000
   1333 H1'        3.0665     3.9709  3233.9514 H        985 DT      0.0000
   1334 H3         0.1978     0.4569  3233.6762 H        985 DT      0.0000
   1335 H6        -0.4242     5.1979  3234.1706 H        985 DT      0.0000
   1336 H71       -2.9581     4.3428  3232.8089 H        985 DT      0.0000
   1337 H72       -2.8259     4.7934  3234.5257 H        985 DT      0.0000
   1338 H73       -3.4983     3.2094  3234.0707 H        985 DT      0.0000
   1339 P          4.7538     7.0916  3232.7815 P.3      984 DT      0.0000
   1340 OP1        5.6169     8.3461  3232.9295 O.co2    984 DT      0.0000
   1341 OP2        3.4573     7.4463  3232.1117 O.co2    984 DT      0.0000
   1342 O5'        5.5301     5.9191  3232.1294 O.3      984 DT      0.0000
   1343 C5'        6.2812     4.9655  3232.8808 C.3      984 DT      0.0000
   1344 C4'        6.2767     3.6710  3232.1328 C.3      984 DT      0.0000
   1345 O4'        5.0840     2.9361  3232.0758 O.3      984 DT      0.0000
   1346 C3'        6.7608     3.6937  3230.6668 C.3      984 DT      0.0000
   1347 O3'        7.4058     2.4207  3230.5630 O.3      984 DT      0.0000
   1348 C2'        5.4304     3.7295  3229.9030 C.3      984 DT      0.0000
   1349 C1'        4.7406     2.6261  3230.6788 C.3      984 DT      0.0000
   1350 N1         3.2792     2.5869  3230.5726 N.am     984 DT      0.0000
   1351 C2         2.7112     1.3059  3230.5720 C.2      984 DT      0.0000
   1352 O2         3.4177     0.2966  3230.6150 O.2      984 DT      0.0000
   1353 N3         1.3490     1.2306  3230.5185 N.am     984 DT      0.0000
   1354 C4         0.5508     2.3341  3230.4588 C.2      984 DT      0.0000
   1355 O4        -0.7033     2.1591  3230.3964 O.2      984 DT      0.0000
   1356 C5         1.1533     3.6217  3230.4670 C.2      984 DT      0.0000
   1357 C7         0.2784     4.8563  3230.4056 C.3      984 DT      0.0000
   1358 C6         2.4861     3.6905  3230.5335 C.2      984 DT      0.0000
   1359 H5'        7.3058     5.3170  3233.0030 H        984 DT      0.0000
   1360 H5''       5.8221     4.8256  3233.8594 H        984 DT      0.0000
   1361 H4'        6.9844     3.0312  3232.6601 H        984 DT      0.0000
   1362 H3'        7.4166     4.5337  3230.4381 H        984 DT      0.0000
   1363 H2'        5.5494     3.4850  3228.8475 H        984 DT      0.0000
   1364 H2''       4.9226     4.6849  3230.0346 H        984 DT      0.0000
   1365 H1'        5.1588     1.6590  3230.3997 H        984 DT      0.0000
   1366 H3         0.9144     0.3190  3230.5234 H        984 DT      0.0000
   1367 H6         2.9531     4.6640  3230.5572 H        984 DT      0.0000
   1368 H71       -0.7688     4.5581  3230.3568 H        984 DT      0.0000
   1369 H72        0.5322     5.4374  3229.5190 H        984 DT      0.0000
   1370 H73        0.4424     5.4625  3231.2965 H        984 DT      0.0000
   1371 P          8.3355     1.9387  3229.4168 P.3      983 DC      0.0000
   1372 OP1        9.6033     1.3370  3230.0259 O.co2    983 DC      0.0000
   1373 OP2        8.6868     3.1654  3228.6350 O.co2    983 DC      0.0000
   1374 O5'        7.3812     0.8448  3228.6774 O.3      983 DC      0.0000
   1375 C5'        7.2128    -0.4178  3229.4019 C.3      983 DC      0.0000
   1376 C4'        7.0924    -1.4911  3228.3514 C.3      983 DC      0.0000
   1377 O4'        5.7525    -1.8497  3228.1061 O.3      983 DC      0.0000
   1378 C3'        7.6868    -1.1379  3226.9870 C.3      983 DC      0.0000
   1379 O3'        8.2499    -2.2436  3226.2777 O.3      983 DC      0.0000
   1380 C2'        6.4683    -0.5050  3226.3008 C.3      983 DC      0.0000
   1381 C1'        5.3122    -1.3404  3226.8474 C.3      983 DC      0.0000
   1382 N1         4.1275    -0.4582  3226.9652 N.am     983 DC      0.0000
   1383 C2         2.8774    -1.0751  3226.9825 C.2      983 DC      0.0000
   1384 O2         2.7703    -2.3072  3226.9138 O.2      983 DC      0.0000
   1385 N3         1.7799    -0.2638  3227.0857 N.2      983 DC      0.0000
   1386 C4         1.8857     1.0889  3227.1564 C.2      983 DC      0.0000
   1387 N4         0.7854     1.8378  3227.2584 N.pl3    983 DC      0.0000
   1388 C5         3.1736     1.6931  3227.1313 C.2      983 DC      0.0000
   1389 C6         4.2512     0.8954  3227.0377 C.2      983 DC      0.0000
   1390 H5'        8.0777    -0.6067  3230.0379 H        983 DC      0.0000
   1391 H5''       6.3060    -0.3834  3230.0058 H        983 DC      0.0000
   1392 H4'        7.6108    -2.3761  3228.7201 H        983 DC      0.0000
   1393 H3'        8.4538    -0.3752  3227.1211 H        983 DC      0.0000
   1394 H2'        6.5382    -0.5906  3225.2165 H        983 DC      0.0000
   1395 H2''       6.3607     0.5385  3226.5968 H        983 DC      0.0000
   1396 H1'        5.0957    -2.1648  3226.1680 H        983 DC      0.0000
   1397 H5         3.2826     2.7662  3227.1861 H        983 DC      0.0000
   1398 H6         5.2363     1.3378  3227.0196 H        983 DC      0.0000
   1399 H41       -0.1240     1.3989  3227.2791 H        983 DC      0.0000
   1400 H42        0.8623     2.8433  3227.3148 H        983 DC      0.0000
   1401 P          8.1971    -2.4714  3224.6457 P.3      982 DA      0.0000
   1402 OP1        9.3405    -3.3832  3224.2562 O.co2    982 DA      0.0000
   1403 OP2        8.2708    -1.0987  3224.0756 O.co2    982 DA      0.0000
   1404 O5'        6.8336    -3.2850  3224.4801 O.3      982 DA      0.0000
   1405 C5'        6.8056    -4.6901  3224.9456 C.3      982 DA      0.0000
   1406 C4'        5.7176    -5.2855  3224.0683 C.3      982 DA      0.0000
   1407 O4'        4.4693    -4.6337  3224.3356 O.3      982 DA      0.0000
   1408 C3'        5.9560    -5.0649  3222.5639 C.3      982 DA      0.0000
   1409 O3'        5.1561    -5.9310  3221.7748 O.3      982 DA      0.0000
   1410 C2'        5.3442    -3.6644  3222.3764 C.3      982 DA      0.0000
   1411 C1'        4.0272    -3.9936  3223.1311 C.3      982 DA      0.0000
   1412 N9         3.3578    -2.7051  3223.2765 N.ar     982 DA      0.0000
   1413 C8         3.9644    -1.4711  3223.3493 C.ar     982 DA      0.0000
   1414 N7         3.1156    -0.4807  3223.4640 N.ar     982 DA      0.0000
   1415 C5         1.8622    -1.1186  3223.4576 C.ar     982 DA      0.0000
   1416 C6         0.5464    -0.5889  3223.5576 C.ar     982 DA      0.0000
   1417 N6         0.2771     0.7140  3223.6804 N.pl3    982 DA      0.0000
   1418 N1        -0.4419    -1.5261  3223.5224 N.ar     982 DA      0.0000
   1419 C2        -0.1691    -2.8486  3223.4035 C.ar     982 DA      0.0000
   1420 N3         1.0385    -3.4132  3223.3120 N.ar     982 DA      0.0000
   1421 C4         2.0051    -2.4791  3223.3396 C.ar     982 DA      0.0000
   1422 H5'        7.7636    -5.1826  3224.7788 H        982 DA      0.0000
   1423 H5''       6.5238    -4.7419  3225.9972 H        982 DA      0.0000
   1424 H4'        5.6252    -6.3523  3224.2722 H        982 DA      0.0000
   1425 H3'        7.0114    -5.1034  3222.2942 H        982 DA      0.0000
   1426 H2'        5.9254    -2.8781  3222.8580 H        982 DA      0.0000
   1427 H2''       5.1610    -3.4427  3221.3250 H        982 DA      0.0000
   1428 H1'        3.4133    -4.6755  3222.5427 H        982 DA      0.0000
   1429 H8         5.0352    -1.3336  3223.3153 H        982 DA      0.0000
   1430 H2        -1.0174    -3.5164  3223.3803 H        982 DA      0.0000
   1431 H61        1.0312     1.3854  3223.7051 H        982 DA      0.0000
   1432 H62       -0.6806     1.0276  3223.7485 H        982 DA      0.0000
   1433 P          5.8075    -6.8230  3220.6339 P.3      981 DC      0.0000
   1434 OP1        6.3077    -8.0273  3221.4142 O.co2    981 DC      0.0000
   1435 OP2        6.8739    -6.1238  3219.9083 O.co2    981 DC      0.0000
   1436 O5'        4.5059    -7.0642  3219.6580 O.3      981 DC      0.0000
   1437 C5'        3.2934    -7.5826  3220.3271 C.3      981 DC      0.0000
   1438 C4'        2.0863    -6.9535  3219.6830 C.3      981 DC      0.0000
   1439 O4'        1.6543    -5.7574  3220.3202 O.3      981 DC      0.0000
   1440 C3'        2.3157    -6.5934  3218.2052 C.3      981 DC      0.0000
   1441 O3'        1.1542    -6.7162  3217.3939 O.3      981 DC      0.0000
   1442 C2'        2.6651    -5.0781  3218.3709 C.3      981 DC      0.0000
   1443 C1'        1.4010    -4.8046  3219.2664 C.3      981 DC      0.0000
   1444 N1         1.3530    -3.3857  3219.5043 N.am     981 DC      0.0000
   1445 C2         0.1334    -2.8101  3219.8215 C.2      981 DC      0.0000
   1446 O2        -0.9760    -3.3371  3219.9620 O.2      981 DC      0.0000
   1447 N3         0.0945    -1.4577  3220.0197 N.2      981 DC      0.0000
   1448 C4         1.2109    -0.6761  3219.9037 C.2      981 DC      0.0000
   1449 N4         1.1262     0.6459  3220.1198 N.pl3    981 DC      0.0000
   1450 C5         2.4551    -1.2810  3219.5741 C.2      981 DC      0.0000
   1451 C6         2.4677    -2.6052  3219.3824 C.2      981 DC      0.0000
   1452 H5'        3.2468    -8.6659  3220.2156 H        981 DC      0.0000
   1453 H5''       3.3203    -7.3242  3221.3857 H        981 DC      0.0000
   1454 H4'        1.2683    -7.6724  3219.7298 H        981 DC      0.0000
   1455 H3'        3.1535    -7.1506  3217.7862 H        981 DC      0.0000
   1456 H2'        3.6088    -4.9045  3218.8880 H        981 DC      0.0000
   1457 H2''       2.6159    -4.5427  3217.4226 H        981 DC      0.0000
   1458 H1'        0.5061    -5.1053  3218.7215 H        981 DC      0.0000
   1459 H5         3.3565    -0.6932  3219.4820 H        981 DC      0.0000
   1460 H6         3.4020    -3.0788  3219.1191 H        981 DC      0.0000
   1461 H41        0.2381     1.0625  3220.3603 H        981 DC      0.0000
   1462 H42        1.9506     1.2242  3220.0419 H        981 DC      0.0000
   1463 P         -6.8426     7.3185  3253.9931 P.3      991 DG      0.0000
   1464 OP1       -7.2186     8.7538  3253.9915 O.co2    991 DG      0.0000
   1465 OP2       -5.7401     7.1505  3255.0488 O.co2    991 DG      0.0000
   1466 O5'       -8.0228     6.2665  3254.1715 O.3      991 DG      0.0000
   1467 C5'       -8.6767     5.4566  3253.1715 C.3      991 DG      0.0000
   1468 C4'       -8.7093     4.0270  3253.6703 C.3      991 DG      0.0000
   1469 O4'       -7.5795     3.2927  3253.2511 O.3      991 DG      0.0000
   1470 C3'       -8.8437     3.7999  3255.1625 C.3      991 DG      0.0000
   1471 O3'       -9.9663     2.9317  3255.4745 O.3      991 DG      0.0000
   1472 C2'       -7.5048     3.2252  3255.5844 C.3      991 DG      0.0000
   1473 C1'       -6.9926     2.5620  3254.3287 C.3      991 DG      0.0000
   1474 N9        -5.5193     2.6047  3254.2997 N.ar     991 DG      0.0000
   1475 C8        -4.6729     3.6637  3254.5285 C.ar     991 DG      0.0000
   1476 N7        -3.3976     3.3605  3254.4388 N.ar     991 DG      0.0000
   1477 C5        -3.4011     2.0046  3254.1218 C.ar     991 DG      0.0000
   1478 C6        -2.3470     1.0853  3253.8959 C.2      991 DG      0.0000
   1479 O6        -1.1340     1.2962  3253.9172 O.2      991 DG      0.0000
   1480 N1        -2.7405    -0.1943  3253.6144 N.am     991 DG      0.0000
   1481 C2        -3.9827    -0.5538  3253.5537 C.2      991 DG      0.0000
   1482 N2        -4.0748    -1.7918  3253.2570 N.pl3    991 DG      0.0000
   1483 N3        -5.0893     0.2755  3253.7625 N.2      991 DG      0.0000
   1484 C4        -4.6958     1.5279  3254.0351 C.ar     991 DG      0.0000
   1485 H5'       -9.6936     5.8156  3253.0128 H        991 DG      0.0000
   1486 H5''      -8.1193     5.5067  3252.2361 H        991 DG      0.0000
   1487 H4'       -9.5755     3.5560  3253.2056 H        991 DG      0.0000
   1488 H3'       -8.9895     4.7606  3255.6564 H        991 DG      0.0000
   1489 H2'       -6.8281     4.0145  3255.9113 H        991 DG      0.0000
   1490 H2''      -7.6398     2.4880  3256.3759 H        991 DG      0.0000
   1491 H1'       -7.3304     1.5261  3254.2968 H        991 DG      0.0000
   1492 H8        -5.0253     4.6577  3254.7616 H        991 DG      0.0000
   1493 H1        -2.0288    -0.8908  3253.4460 H        991 DG      0.0000
   1494 H21       -3.2389    -2.3400  3253.1126 H        991 DG      0.0000
   1495 H22       -4.9835    -2.2232  3253.1665 H        991 DG      0.0000
   1496 P        -10.1801     2.2944  3256.9030 P.3      992 DT      0.0000
   1497 OP1      -11.5970     2.2621  3257.4147 O.co2    992 DT      0.0000
   1498 OP2       -9.4553     3.2948  3257.8217 O.co2    992 DT      0.0000
   1499 O5'       -9.4268     0.9400  3256.9316 O.3      992 DT      0.0000
   1500 C5'      -10.0946    -0.3437  3256.7876 C.3      992 DT      0.0000
   1501 C4'       -8.9769    -1.3639  3256.8451 C.3      992 DT      0.0000
   1502 O4'       -7.7175    -0.7910  3256.5700 O.3      992 DT      0.0000
   1503 C3'       -8.7914    -2.0821  3258.1578 C.3      992 DT      0.0000
   1504 O3'       -9.0863    -3.4740  3257.9696 O.3      992 DT      0.0000
   1505 C2'       -7.3301    -1.8653  3258.5501 C.3      992 DT      0.0000
   1506 C1'       -6.7082    -1.6346  3257.1973 C.3      992 DT      0.0000
   1507 N1        -5.4791    -0.8469  3257.2940 N.am     992 DT      0.0000
   1508 C2        -4.2937    -1.5016  3257.0960 C.2      992 DT      0.0000
   1509 O2        -4.2367    -2.7058  3256.8578 O.2      992 DT      0.0000
   1510 N3        -3.1486    -0.7559  3257.1771 N.am     992 DT      0.0000
   1511 C4        -3.1527     0.5720  3257.4330 C.2      992 DT      0.0000
   1512 O4        -2.0216     1.1225  3257.4783 O.2      992 DT      0.0000
   1513 C5        -4.4031     1.2406  3257.6327 C.2      992 DT      0.0000
   1514 C7        -4.4516     2.7075  3257.9126 C.3      992 DT      0.0000
   1515 C6        -5.5181     0.5033  3257.5512 C.2      992 DT      0.0000
   1516 H5'      -10.8026    -0.5024  3257.6010 H        992 DT      0.0000
   1517 H5''     -10.6058    -0.3976  3255.8264 H        992 DT      0.0000
   1518 H4'       -9.1738    -2.1154  3256.0806 H        992 DT      0.0000
   1519 H3'       -9.4506    -1.6574  3258.9149 H        992 DT      0.0000
   1520 H2'       -7.2132    -0.9972  3259.1989 H        992 DT      0.0000
   1521 H2''      -6.9178    -2.7586  3259.0193 H        992 DT      0.0000
   1522 H1'       -6.5562    -2.5661  3256.6520 H        992 DT      0.0000
   1523 H3        -2.2611    -1.2180  3257.0396 H        992 DT      0.0000
   1524 H6        -6.4755     0.9831  3257.6916 H        992 DT      0.0000
   1525 H71       -4.7398     3.2414  3257.0071 H        992 DT      0.0000
   1526 H72       -3.4684     3.0478  3258.2374 H        992 DT      0.0000
   1527 H73       -5.1817     2.9036  3258.6979 H        992 DT      0.0000
   1528 P         -9.8327    -4.1453  3259.2496 P.3      993 DG      0.0000
   1529 OP1      -10.7790    -5.1013  3258.5345 O.co2    993 DG      0.0000
   1530 OP2      -10.5046    -3.1017  3260.0031 O.co2    993 DG      0.0000
   1531 O5'       -8.4987    -4.8617  3259.8591 O.3      993 DG      0.0000
   1532 C5'       -7.7635    -5.5351  3258.7685 C.3      993 DG      0.0000
   1533 C4'       -6.4010    -5.8875  3259.2885 C.3      993 DG      0.0000
   1534 O4'       -5.3940    -4.9280  3259.1080 O.3      993 DG      0.0000
   1535 C3'       -6.4155    -6.2383  3260.7966 C.3      993 DG      0.0000
   1536 O3'       -5.8093    -7.5439  3260.9554 O.3      993 DG      0.0000
   1537 C2'       -5.6951    -5.0777  3261.4492 C.3      993 DG      0.0000
   1538 C1'       -4.6955    -4.6850  3260.3676 C.3      993 DG      0.0000
   1539 N9        -4.2418    -3.3001  3260.5371 N.ar     993 DG      0.0000
   1540 C8        -4.9740    -2.1950  3260.8733 C.ar     993 DG      0.0000
   1541 N7        -4.2788    -1.0822  3260.9591 N.ar     993 DG      0.0000
   1542 C5        -2.9895    -1.4937  3260.6291 C.ar     993 DG      0.0000
   1543 C6        -1.7729    -0.7593  3260.5347 C.2      993 DG      0.0000
   1544 O6        -1.5926     0.4524  3260.7270 O.2      993 DG      0.0000
   1545 N1        -0.6750    -1.5183  3260.1997 N.am     993 DG      0.0000
   1546 C2        -0.7665    -2.8582  3259.9759 C.2      993 DG      0.0000
   1547 N2         0.4027    -3.4343  3259.6671 N.pl3    993 DG      0.0000
   1548 N3        -1.8779    -3.5872  3260.0469 N.2      993 DG      0.0000
   1549 C4        -2.9517    -2.8477  3260.3735 C.ar     993 DG      0.0000
   1550 H5'       -8.2918    -6.4399  3258.4680 H        993 DG      0.0000
   1551 H5''      -7.6703    -4.8622  3257.9161 H        993 DG      0.0000
   1552 H4'       -6.0820    -6.7846  3258.7580 H        993 DG      0.0000
   1553 H3'       -7.4456    -6.2713  3261.1513 H        993 DG      0.0000
   1554 H2'       -6.3804    -4.2600  3261.6721 H        993 DG      0.0000
   1555 H2''      -5.1779    -5.4037  3262.3516 H        993 DG      0.0000
   1556 H1'       -3.8329    -5.3487  3260.4265 H        993 DG      0.0000
   1557 H8        -6.0381    -2.2332  3261.0540 H        993 DG      0.0000
   1558 H1         0.2254    -1.0681  3260.1173 H        993 DG      0.0000
   1559 H21        1.2430    -2.8762  3259.6169 H        993 DG      0.0000
   1560 H22        0.4440    -4.4268  3259.4844 H        993 DG      0.0000
   1561 P         -5.7622    -8.2607  3262.3439 P.3      994 DA      0.0000
   1562 OP1       -6.9316    -9.1205  3262.6992 O.co2    994 DA      0.0000
   1563 OP2       -5.8334    -6.9698  3263.2396 O.co2    994 DA      0.0000
   1564 O5'       -4.2985    -8.8178  3262.5930 O.3      994 DA      0.0000
   1565 C5'       -3.3430    -9.1139  3261.5639 C.3      994 DA      0.0000
   1566 C4'       -2.0382    -8.4947  3262.0383 C.3      994 DA      0.0000
   1567 O4'       -2.1005    -7.0874  3261.9479 O.3      994 DA      0.0000
   1568 C3'       -1.6106    -8.8295  3263.4673 C.3      994 DA      0.0000
   1569 O3'       -0.2213    -9.2145  3263.5196 O.3      994 DA      0.0000
   1570 C2'       -1.8959    -7.5143  3264.2027 C.3      994 DA      0.0000
   1571 C1'       -1.4576    -6.5342  3263.1252 C.3      994 DA      0.0000
   1572 N9        -1.9164    -5.1604  3263.3536 N.ar     994 DA      0.0000
   1573 C8        -3.1769    -4.6800  3263.5693 C.ar     994 DA      0.0000
   1574 N7        -3.2295    -3.3770  3263.7343 N.ar     994 DA      0.0000
   1575 C5        -1.9110    -2.9706  3263.5941 C.ar     994 DA      0.0000
   1576 C6        -1.3162    -1.6908  3263.6421 C.ar     994 DA      0.0000
   1577 N6        -1.9839    -0.5557  3263.8618 N.pl3    994 DA      0.0000
   1578 N1         0.0367    -1.6698  3263.4522 N.ar     994 DA      0.0000
   1579 C2         0.7333    -2.8091  3263.2345 C.ar     994 DA      0.0000
   1580 N3         0.2416    -4.0462  3263.1762 N.ar     994 DA      0.0000
   1581 C4        -1.0909    -4.0479  3263.3631 C.ar     994 DA      0.0000
   1582 H5'       -3.6529    -8.6724  3260.6167 H        994 DA      0.0000
   1583 H5''      -3.2293   -10.1927  3261.4561 H        994 DA      0.0000
   1584 H4'       -1.2482    -8.8344  3261.3685 H        994 DA      0.0000
   1585 H3'       -2.2361    -9.6268  3263.8687 H        994 DA      0.0000
   1586 H2'       -2.9522    -7.4050  3264.4482 H        994 DA      0.0000
   1587 H2''      -1.2748    -7.4209  3265.0936 H        994 DA      0.0000
   1588 H1'       -0.3738    -6.5572  3263.0106 H        994 DA      0.0000
   1589 H8        -4.0510    -5.3135  3263.6014 H        994 DA      0.0000
   1590 H2         1.7990    -2.7050  3263.0931 H        994 DA      0.0000
   1591 H61       -2.9830    -0.4438  3263.7644 H        994 DA      0.0000
   1592 H62       -1.5103     0.3197  3263.6903 H        994 DA      0.0000
   1593 P          0.3640   -10.2404  3264.6610 P.3      995 DA      0.0000
   1594 OP1        0.9207   -11.4736  3263.9940 O.co2    995 DA      0.0000
   1595 OP2       -0.8377   -10.4577  3265.4919 O.co2    995 DA      0.0000
   1596 O5'        1.6533    -9.4652  3265.1919 O.3      995 DA      0.0000
   1597 C5'        2.7692    -9.1327  3264.3675 C.3      995 DA      0.0000
   1598 C4'        3.3737    -7.8412  3264.8898 C.3      995 DA      0.0000
   1599 O4'        2.4256    -6.8120  3264.9180 O.3      995 DA      0.0000
   1600 C3'        4.0339    -7.8801  3266.2571 C.3      995 DA      0.0000
   1601 O3'        5.4322    -7.6038  3266.1793 O.3      995 DA      0.0000
   1602 C2'        3.2171    -6.8810  3267.0859 C.3      995 DA      0.0000
   1603 C1'        2.6240    -5.9596  3266.0921 C.3      995 DA      0.0000
   1604 N9         1.3305    -5.3053  3266.3601 N.ar     995 DA      0.0000
   1605 C8         0.0734    -5.8473  3266.4753 C.ar     995 DA      0.0000
   1606 N7        -0.8796    -4.9617  3266.6446 N.ar     995 DA      0.0000
   1607 C5        -0.2099    -3.7429  3266.6076 C.ar     995 DA      0.0000
   1608 C6        -0.6745    -2.4021  3266.7281 C.ar     995 DA      0.0000
   1609 N6        -1.9364    -2.0385  3266.9197 N.pl3    995 DA      0.0000
   1610 N1         0.2890    -1.4297  3266.6299 N.ar     995 DA      0.0000
   1611 C2         1.5982    -1.7653  3266.4408 C.ar     995 DA      0.0000
   1612 N3         2.0978    -2.9912  3266.3330 N.ar     995 DA      0.0000
   1613 C4         1.1399    -3.9354  3266.4248 C.ar     995 DA      0.0000
   1614 H5'        2.4398    -8.9962  3263.3375 H        995 DA      0.0000
   1615 H5''       3.5106    -9.9304  3264.4135 H        995 DA      0.0000
   1616 H4'        4.1423    -7.5422  3264.1771 H        995 DA      0.0000
   1617 H3'        3.8990    -8.8755  3266.6804 H        995 DA      0.0000
   1618 H2'        2.4362    -7.3953  3267.6462 H        995 DA      0.0000
   1619 H2''       3.8696    -6.3329  3267.7655 H        995 DA      0.0000
   1620 H1'        3.3583    -5.1926  3265.8460 H        995 DA      0.0000
   1621 H8        -0.1141    -6.9100  3266.4305 H        995 DA      0.0000
   1622 H2         2.3016    -0.9487  3266.3716 H        995 DA      0.0000
   1623 H61       -2.6401    -2.6856  3267.2459 H        995 DA      0.0000
   1624 H62       -2.2022    -1.0822  3266.7329 H        995 DA      0.0000
   1625 P          6.5780    -8.2498  3267.1355 P.3      996 DT      0.0000
   1626 OP1        7.8176    -8.6392  3266.3382 O.co2    996 DT      0.0000
   1627 OP2        6.0236    -9.3061  3267.9561 O.co2    996 DT      0.0000
   1628 O5'        7.1133    -6.9245  3267.9493 O.3      996 DT      0.0000
   1629 C5'        7.1937    -5.7734  3267.0042 C.3      996 DT      0.0000
   1630 C4'        6.6561    -4.6058  3267.7919 C.3      996 DT      0.0000
   1631 O4'        5.2599    -4.6469  3267.9838 O.3      996 DT      0.0000
   1632 C3'        7.2555    -4.5339  3269.2085 C.3      996 DT      0.0000
   1633 O3'        8.3214    -3.6023  3269.2101 O.3      996 DT      0.0000
   1634 C2'        6.0774    -4.1630  3270.1057 C.3      996 DT      0.0000
   1635 C1'        5.0485    -3.7260  3269.1411 C.3      996 DT      0.0000
   1636 N1         3.6365    -3.8011  3269.4808 N.am     996 DT      0.0000
   1637 C2         2.9582    -2.5941  3269.6188 C.2      996 DT      0.0000
   1638 O2         3.5710    -1.5379  3269.5308 O.2      996 DT      0.0000
   1639 N3         1.6204    -2.6325  3269.8728 N.am     996 DT      0.0000
   1640 C4         0.9257    -3.8020  3269.9929 C.2      996 DT      0.0000
   1641 O4        -0.3200    -3.7545  3270.2481 O.2      996 DT      0.0000
   1642 C5         1.6411    -5.0326  3269.8213 C.2      996 DT      0.0000
   1643 C7         0.9189    -6.3485  3269.9089 C.3      996 DT      0.0000
   1644 C6         2.9600    -4.9891  3269.5656 C.2      996 DT      0.0000
   1645 H5'        8.2255    -5.5931  3266.7025 H        996 DT      0.0000
   1646 H5''       6.5706    -5.9583  3266.1291 H        996 DT      0.0000
   1647 H4'        6.9062    -3.6862  3267.2627 H        996 DT      0.0000
   1648 H3'        7.6324    -5.5164  3269.4928 H        996 DT      0.0000
   1649 H2'        5.7356    -5.0246  3270.6791 H        996 DT      0.0000
   1650 H2''       6.3482    -3.3440  3270.7721 H        996 DT      0.0000
   1651 H1'        5.2773    -2.7086  3268.8238 H        996 DT      0.0000
   1652 H3         1.1219    -1.7603  3269.9765 H        996 DT      0.0000
   1653 H6         3.4998    -5.9137  3269.4234 H        996 DT      0.0000
   1654 H71       -0.1353    -6.1715  3270.1219 H        996 DT      0.0000
   1655 H72        1.0138    -6.8785  3268.9611 H        996 DT      0.0000
   1656 H73        1.3548    -6.9499  3270.7067 H        996 DT      0.0000
   1657 P          9.3733    -3.3222  3270.3168 P.3      997 DT      0.0000
   1658 OP1       10.6412    -2.6724  3269.7047 O.co2    997 DT      0.0000
   1659 OP2        9.6748    -4.6335  3270.9467 O.co2    997 DT      0.0000
   1660 O5'        8.7255    -2.1501  3271.1991 O.3      997 DT      0.0000
   1661 C5'        8.6752    -0.8846  3270.4873 C.3      997 DT      0.0000
   1662 C4'        7.6904     0.0048  3271.1635 C.3      997 DT      0.0000
   1663 O4'        6.3578    -0.4913  3271.1401 O.3      997 DT      0.0000
   1664 C3'        8.0205     0.3173  3272.6301 C.3      997 DT      0.0000
   1665 O3'        7.8184     1.6927  3272.8941 O.3      997 DT      0.0000
   1666 C2'        6.9481    -0.5203  3273.3664 C.3      997 DT      0.0000
   1667 C1'        5.7791    -0.1846  3272.4629 C.3      997 DT      0.0000
   1668 N1         4.6315    -1.0215  3272.7606 N.am     997 DT      0.0000
   1669 C2         3.3793    -0.4311  3272.8154 C.2      997 DT      0.0000
   1670 O2         3.2838     0.7825  3272.6270 O.2      997 DT      0.0000
   1671 N3         2.3007    -1.2267  3273.0813 N.am     997 DT      0.0000
   1672 C4         2.4209    -2.5666  3273.2883 C.2      997 DT      0.0000
   1673 O4         1.3756    -3.2419  3273.5116 O.2      997 DT      0.0000
   1674 C5         3.7134    -3.1640  3273.2232 C.2      997 DT      0.0000
   1675 C7         3.9269    -4.6348  3273.4332 C.3      997 DT      0.0000
   1676 C6         4.7618    -2.3678  3272.9621 C.2      997 DT      0.0000
   1677 H5'        9.6600    -0.4175  3270.4997 H        997 DT      0.0000
   1678 H5''       8.3651    -1.0567  3269.4566 H        997 DT      0.0000
   1679 H4'        7.6902     0.9525  3270.6250 H        997 DT      0.0000
   1680 H3'        9.0299     0.0004  3272.8925 H        997 DT      0.0000
   1681 H2'        7.1806    -1.5852  3273.3652 H        997 DT      0.0000
   1682 H2''       6.7843    -0.1519  3274.3791 H        997 DT      0.0000
   1683 H1'        5.5201     0.8714  3272.5385 H        997 DT      0.0000
   1684 H3         1.3834    -0.8064  3273.1257 H        997 DT      0.0000
   1685 H6         5.7468    -2.8075  3272.9090 H        997 DT      0.0000
   1686 H71        2.9696    -5.1167  3273.6321 H        997 DT      0.0000
   1687 H72        4.3725    -5.0684  3272.5379 H        997 DT      0.0000
   1688 H73        4.5939    -4.7877  3274.2816 H        997 DT      0.0000
   1689 P          8.6630     2.8674  3273.5021 P.3      998 DC      0.0000
   1690 OP1        9.0780     3.8611  3272.4342 O.co2    998 DC      0.0000
   1691 OP2        9.7632     2.2170  3274.2371 O.co2    998 DC      0.0000
   1692 O5'        7.4400     3.5617  3274.3281 O.3      998 DC      0.0000
   1693 C5'        6.3923     3.7423  3273.3058 C.3      998 DC      0.0000
   1694 C4'        5.1913     4.3161  3274.0024 C.3      998 DC      0.0000
   1695 O4'        4.2066     3.3609  3274.2493 O.3      998 DC      0.0000
   1696 C3'        5.4905     5.0690  3275.2938 C.3      998 DC      0.0000
   1697 O3'        4.9974     6.3998  3275.2141 O.3      998 DC      0.0000
   1698 C2'        4.8849     4.1336  3276.3426 C.3      998 DC      0.0000
   1699 C1'        3.7702     3.4589  3275.6462 C.3      998 DC      0.0000
   1700 N1         3.5297     2.0511  3275.9783 N.am     998 DC      0.0000
   1701 C2         2.2050     1.7040  3276.2341 C.2      998 DC      0.0000
   1702 O2         1.3077     2.5523  3276.2386 O.2      998 DC      0.0000
   1703 N3         1.9382     0.3853  3276.5079 N.2      998 DC      0.0000
   1704 C4         2.9236    -0.5576  3276.4980 C.2      998 DC      0.0000
   1705 N4         2.5654    -1.8066  3276.7748 N.pl3    998 DC      0.0000
   1706 C5         4.2596    -0.1937  3276.2200 C.2      998 DC      0.0000
   1707 C6         4.5057     1.1058  3275.9552 C.2      998 DC      0.0000
   1708 H5'        6.7387     4.4275  3272.5322 H        998 DC      0.0000
   1709 H5''       6.1382     2.7799  3272.8616 H        998 DC      0.0000
   1710 H4'        4.7535     5.0412  3273.3164 H        998 DC      0.0000
   1711 H3'        6.5705     5.1035  3275.4371 H        998 DC      0.0000
   1712 H2'        5.6230     3.4063  3276.6805 H        998 DC      0.0000
   1713 H2''       4.5080     4.7090  3277.1881 H        998 DC      0.0000
   1714 H1'        2.8517     4.0403  3275.7271 H        998 DC      0.0000
   1715 H5         5.0527    -0.9267  3276.2194 H        998 DC      0.0000
   1716 H6         5.5152     1.4060  3275.7162 H        998 DC      0.0000
   1717 H41        1.5991    -2.0225  3276.9740 H        998 DC      0.0000
   1718 H42        3.2595    -2.5402  3276.7862 H        998 DC      0.0000
   1719 P          5.4256     7.6422  3276.1662 P.3      999 DA      0.0000
   1720 OP1        5.1857     8.9121  3275.3724 O.co2    999 DA      0.0000
   1721 OP2        6.8520     7.4756  3276.5117 O.co2    999 DA      0.0000
   1722 O5'        4.4210     7.5127  3277.4632 O.3      999 DA      0.0000
   1723 C5'        2.9932     7.4272  3277.1680 C.3      999 DA      0.0000
   1724 C4'        2.2126     7.2135  3278.4232 C.3      999 DA      0.0000
   1725 O4'        1.8106     5.8619  3278.6654 O.3      999 DA      0.0000
   1726 C3'        2.9417     7.5738  3279.7285 C.3      999 DA      0.0000
   1727 O3'        1.9677     7.7574  3280.7584 O.3      999 DA      0.0000
   1728 C2'        3.7297     6.2660  3279.9431 C.3      999 DA      0.0000
   1729 C1'        2.5423     5.3148  3279.7598 C.3      999 DA      0.0000
   1730 N9         3.0325     3.9501  3279.6655 N.ar     999 DA      0.0000
   1731 C8         4.3066     3.4676  3279.5496 C.ar     999 DA      0.0000
   1732 N7         4.4048     2.1504  3279.5310 N.ar     999 DA      0.0000
   1733 C5         3.0856     1.7335  3279.6386 C.ar     999 DA      0.0000
   1734 C6         2.4971     0.4452  3279.6731 C.ar     999 DA      0.0000
   1735 N6         3.1701    -0.6882  3279.5878 N.pl3    999 DA      0.0000
   1736 N1         1.1386     0.4080  3279.8057 N.ar     999 DA      0.0000
   1737 C2         0.4010     1.5592  3279.8859 C.ar     999 DA      0.0000
   1738 N3         0.8795     2.8007  3279.8560 N.ar     999 DA      0.0000
   1739 C4         2.2294     2.8186  3279.7330 C.ar     999 DA      0.0000
   1740 H5'        2.6681     8.3548  3276.6968 H        999 DA      0.0000
   1741 H5''       2.8151     6.5952  3276.4867 H        999 DA      0.0000
   1742 H4'        1.3118     7.8243  3278.3643 H        999 DA      0.0000
   1743 H3'        3.5949     8.4389  3279.6148 H        999 DA      0.0000
   1744 H2'        4.5056     6.1167  3279.1923 H        999 DA      0.0000
   1745 H2''       4.1356     6.2066  3280.9530 H        999 DA      0.0000
   1746 H1'        1.9165     5.3851  3280.6494 H        999 DA      0.0000
   1747 H8         5.1683     4.1148  3279.4787 H        999 DA      0.0000
   1748 H2        -0.6691     1.4491  3279.9823 H        999 DA      0.0000
   1749 H61        2.9439    -1.6560  3279.7679 H        999 DA      0.0000
   1750 H62        4.1209    -0.5584  3279.2731 H        999 DA      0.0000
   1751 P          1.1502     9.1257  3280.8989 P.3     1000 DC      0.0000
   1752 OP1        1.1573     9.9447  3279.6538 O.co2   1000 DC      0.0000
   1753 OP2        1.8532     9.7993  3282.0418 O.co2   1000 DC      0.0000
   1754 O5'       -0.3317     8.6375  3281.1820 O.3     1000 DC      0.0000
   1755 C5'       -1.2149     8.2281  3280.0943 C.3     1000 DC      0.0000
   1756 C4'       -2.1191     7.2107  3280.7993 C.3     1000 DC      0.0000
   1757 O4'       -1.3260     6.0890  3281.1113 O.3     1000 DC      0.0000
   1758 C3'       -2.7147     7.7201  3282.1092 C.3     1000 DC      0.0000
   1759 O3'       -4.1492     7.5547  3282.1771 O.3     1000 DC      0.0000
   1760 C2'       -1.9606     6.9327  3283.1914 C.3     1000 DC      0.0000
   1761 C1'       -1.6744     5.6536  3282.5152 C.3     1000 DC      0.0000
   1762 N1        -0.5076     4.8488  3282.8680 N.am    1000 DC      0.0000
   1763 C2        -0.7092     3.4701  3282.8411 C.2     1000 DC      0.0000
   1764 O2        -1.8058     2.9659  3282.6342 O.2     1000 DC      0.0000
   1765 N3         0.3659     2.6764  3283.0943 N.2     1000 DC      0.0000
   1766 C4         1.6025     3.1788  3283.3276 C.2     1000 DC      0.0000
   1767 N4         2.5763     2.3004  3283.5585 N.pl3   1000 DC      0.0000
   1768 C5         1.7983     4.5873  3283.3342 C.2     1000 DC      0.0000
   1769 C6         0.7328     5.3642  3283.0847 C.2     1000 DC      0.0000
   1770 H5'       -1.7890     9.0709  3279.7095 H       1000 DC      0.0000
   1771 H5''      -0.6473     7.7511  3279.2953 H       1000 DC      0.0000
   1772 H4'       -2.9230     6.9116  3280.1266 H       1000 DC      0.0000
   1773 H3'       -2.4775     8.7787  3282.2151 H       1000 DC      0.0000
   1774 H2'       -1.0400     7.4409  3283.4784 H       1000 DC      0.0000
   1775 H2''      -2.5969     6.7721  3284.0616 H       1000 DC      0.0000
   1776 H1'       -2.5683     5.0299  3282.5019 H       1000 DC      0.0000
   1777 H5         2.7694     5.0163  3283.5327 H       1000 DC      0.0000
   1778 H6         0.8645     6.4357  3283.0550 H       1000 DC      0.0000
   1779 H41        2.3765     1.3104  3283.5475 H       1000 DC      0.0000
   1780 H42        3.5148     2.6242  3283.7447 H       1000 DC      0.0000
   1781 P          2.8458    -7.9967  3285.1366 P.3     1000 DG      0.0000
   1782 OP1        3.4062    -9.3718  3285.3154 O.co2   1000 DG      0.0000
   1783 OP2        3.5574    -7.1991  3284.0518 O.co2   1000 DG      0.0000
   1784 O5'        1.2159    -8.0944  3284.9294 O.3     1000 DG      0.0000
   1785 C5'        0.3309    -7.6869  3286.0251 C.3     1000 DG      0.0000
   1786 C4'       -0.8660    -6.9822  3285.3908 C.3     1000 DG      0.0000
   1787 O4'       -0.6701    -5.5977  3285.2950 O.3     1000 DG      0.0000
   1788 C3'       -1.2109    -7.4651  3283.9845 C.3     1000 DG      0.0000
   1789 O3'       -2.6290    -7.5626  3283.7175 O.3     1000 DG      0.0000
   1790 C2'       -0.5380    -6.4150  3283.0822 C.3     1000 DG      0.0000
   1791 C1'       -0.7487    -5.1555  3283.9060 C.3     1000 DG      0.0000
   1792 N9         0.3028    -4.1610  3283.6327 N.ar    1000 DG      0.0000
   1793 C8         1.6511    -4.3780  3283.4761 C.ar    1000 DG      0.0000
   1794 N7         2.3420    -3.2908  3283.2577 N.ar    1000 DG      0.0000
   1795 C5         1.3858    -2.2824  3283.2825 C.ar    1000 DG      0.0000
   1796 C6         1.5026    -0.8754  3283.1260 C.2     1000 DG      0.0000
   1797 O6         2.5462    -0.2368  3282.9292 O.2     1000 DG      0.0000
   1798 N1         0.3122    -0.1964  3283.2129 N.am    1000 DG      0.0000
   1799 C2        -0.8714    -0.8193  3283.4336 C.2     1000 DG      0.0000
   1800 N2        -1.9412    -0.0313  3283.4969 N.pl3   1000 DG      0.0000
   1801 N3        -1.0361    -2.1384  3283.5913 N.2     1000 DG      0.0000
   1802 C4         0.1322    -2.8040  3283.5080 C.ar    1000 DG      0.0000
   1803 H5'       -0.0020    -8.5621  3286.5829 H       1000 DG      0.0000
   1804 H5''       0.8556    -7.0009  3286.6900 H       1000 DG      0.0000
   1805 H4'       -1.7336    -7.1553  3286.0276 H       1000 DG      0.0000
   1806 H3'       -0.7458    -8.4361  3283.8140 H       1000 DG      0.0000
   1807 H2'        0.5213    -6.6284  3282.9395 H       1000 DG      0.0000
   1808 H2''      -1.0513    -6.3415  3282.1235 H       1000 DG      0.0000
   1809 H1'       -1.7315    -4.7310  3283.7008 H       1000 DG      0.0000
   1810 H8         2.0992    -5.3592  3283.5288 H       1000 DG      0.0000
   1811 H1         0.3188     0.8080  3283.1081 H       1000 DG      0.0000
   1812 H21       -1.8405     0.9670  3283.3819 H       1000 DG      0.0000
   1813 H22       -2.8541    -0.4314  3283.6601 H       1000 DG      0.0000
   1814 P         -3.0658    -7.3255  3282.1940 P.3      999 DT      0.0000
   1815 OP1       -4.3235    -8.0538  3281.8031 O.co2    999 DT      0.0000
   1816 OP2       -1.8825    -7.8824  3281.4935 O.co2    999 DT      0.0000
   1817 O5'       -3.2833    -5.7434  3282.0631 O.3      999 DT      0.0000
   1818 C5'       -4.6308    -5.2389  3282.3308 C.3      999 DT      0.0000
   1819 C4'       -4.8149    -3.9416  3281.5737 C.3      999 DT      0.0000
   1820 O4'       -3.6424    -3.1473  3281.5464 O.3      999 DT      0.0000
   1821 C3'       -5.2063    -4.1507  3280.1190 C.3      999 DT      0.0000
   1822 O3'       -6.1647    -3.1906  3279.6239 O.3      999 DT      0.0000
   1823 C2'       -3.8815    -4.0485  3279.3962 C.3      999 DT      0.0000
   1824 C1'       -3.2628    -2.8990  3280.1743 C.3      999 DT      0.0000
   1825 N1        -1.8043    -3.0215  3280.0230 N.am     999 DT      0.0000
   1826 C2        -1.0742    -1.8421  3280.1297 C.2      999 DT      0.0000
   1827 O2        -1.6444    -0.7731  3280.3195 O.2      999 DT      0.0000
   1828 N3         0.2841    -1.9360  3280.0096 N.am     999 DT      0.0000
   1829 C4         0.9080    -3.1278  3279.7920 C.2      999 DT      0.0000
   1830 O4         2.1796    -3.1156  3279.6944 O.2      999 DT      0.0000
   1831 C5         0.1337    -4.3184  3279.6856 C.2      999 DT      0.0000
   1832 C7         0.8114    -5.6389  3279.4567 C.3      999 DT      0.0000
   1833 C6        -1.1927    -4.2208  3279.8074 C.2      999 DT      0.0000
   1834 H5'       -5.3695    -5.9676  3281.9970 H        999 DT      0.0000
   1835 H5''      -4.7496    -5.0597  3283.3994 H        999 DT      0.0000
   1836 H4'       -5.6042    -3.3699  3282.0617 H        999 DT      0.0000
   1837 H3'       -5.6074    -5.1566  3279.9950 H        999 DT      0.0000
   1838 H2'       -3.2963    -4.9635  3279.4877 H        999 DT      0.0000
   1839 H2''      -4.0263    -3.7796  3278.3498 H        999 DT      0.0000
   1840 H1'       -3.6254    -1.9327  3279.8236 H        999 DT      0.0000
   1841 H3         0.8419    -1.0973  3280.0842 H        999 DT      0.0000
   1842 H6        -1.7955    -5.1137  3279.7332 H        999 DT      0.0000
   1843 H71        1.8887    -5.4878  3279.3880 H        999 DT      0.0000
   1844 H72        0.5910    -6.3090  3280.2875 H        999 DT      0.0000
   1845 H73        0.4463    -6.0787  3278.5285 H        999 DT      0.0000
   1846 P         -7.3552    -4.0457  3278.8455 P.3      998 DG      0.0000
   1847 OP1       -8.5279    -4.3586  3279.7168 O.co2    998 DG      0.0000
   1848 OP2       -6.5489    -5.2240  3278.4400 O.co2    998 DG      0.0000
   1849 O5'       -7.8284    -2.9675  3277.7647 O.3      998 DG      0.0000
   1850 C5'       -8.7009    -1.8893  3278.1882 C.3      998 DG      0.0000
   1851 C4'       -7.9927    -0.6168  3277.7404 C.3      998 DG      0.0000
   1852 O4'       -6.6093    -0.7227  3278.0111 O.3      998 DG      0.0000
   1853 C3'       -8.1457    -0.3003  3276.2527 C.3      998 DG      0.0000
   1854 O3'       -8.6909     0.9902  3276.0442 O.3      998 DG      0.0000
   1855 C2'       -6.7593    -0.5256  3275.6760 C.3      998 DG      0.0000
   1856 C1'       -5.8593    -0.2716  3276.8621 C.3      998 DG      0.0000
   1857 N9        -4.6063    -1.0212  3276.7386 N.ar     998 DG      0.0000
   1858 C8        -4.4353    -2.3673  3276.5797 C.ar     998 DG      0.0000
   1859 N7        -3.1794    -2.7341  3276.5017 N.ar     998 DG      0.0000
   1860 C5        -2.4705    -1.5443  3276.6392 C.ar     998 DG      0.0000
   1861 C6        -1.0779    -1.2671  3276.6486 C.2      998 DG      0.0000
   1862 O6        -0.1610    -2.0762  3276.5496 O.2      998 DG      0.0000
   1863 N1        -0.7623     0.0535  3276.7976 N.am     998 DG      0.0000
   1864 C2        -1.7256     1.0240  3276.9305 C.2      998 DG      0.0000
   1865 N2        -1.2792     2.2730  3277.0661 N.pl3    998 DG      0.0000
   1866 N3        -3.0486     0.8316  3276.9348 N.2      998 DG      0.0000
   1867 C4        -3.3461    -0.4815  3276.7841 C.ar     998 DG      0.0000
   1868 H5'       -9.6764    -1.9743  3277.7094 H        998 DG      0.0000
   1869 H5''      -8.8112    -1.8976  3279.2725 H        998 DG      0.0000
   1870 H4'       -8.3927     0.2197  3278.3134 H        998 DG      0.0000
   1871 H3'       -8.8227    -1.0334  3275.8141 H        998 DG      0.0000
   1872 H2'       -6.6475    -1.5460  3275.3096 H        998 DG      0.0000
   1873 H2''      -6.5550     0.1910  3274.8804 H        998 DG      0.0000
   1874 H1'       -5.6491     0.7944  3276.9492 H        998 DG      0.0000
   1875 H8        -5.2584    -3.0643  3276.5236 H        998 DG      0.0000
   1876 H1         0.2104     0.3252  3276.8105 H        998 DG      0.0000
   1877 H21       -0.2861     2.4571  3277.0671 H        998 DG      0.0000
   1878 H22       -1.9340     3.0351  3277.1679 H        998 DG      0.0000
   1879 P         -8.2872     2.2487  3275.1779 P.3      997 DA      0.0000
   1880 OP1       -8.5657     3.5390  3275.9593 O.co2    997 DA      0.0000
   1881 OP2       -9.1345     2.1798  3273.9852 O.co2    997 DA      0.0000
   1882 O5'       -6.6689     2.1804  3275.0031 O.3      997 DA      0.0000
   1883 C5'       -5.9714     2.7783  3276.1596 C.3      997 DA      0.0000
   1884 C4'       -5.1999     3.9625  3275.6317 C.3      997 DA      0.0000
   1885 O4'       -3.8447     3.6653  3275.4095 O.3      997 DA      0.0000
   1886 C3'       -5.7302     4.4696  3274.2913 C.3      997 DA      0.0000
   1887 O3'       -5.7541     5.8749  3274.2161 O.3      997 DA      0.0000
   1888 C2'       -4.8608     3.7240  3273.2947 C.3      997 DA      0.0000
   1889 C1'       -3.5923     3.3685  3274.0185 C.3      997 DA      0.0000
   1890 N9        -3.2130     1.9633  3273.7930 N.ar     997 DA      0.0000
   1891 C8        -4.0258     0.8660  3273.6067 C.ar     997 DA      0.0000
   1892 N7        -3.3790    -0.2599  3273.4108 N.ar     997 DA      0.0000
   1893 C5        -2.0455     0.1202  3273.4976 C.ar     997 DA      0.0000
   1894 C6        -0.8503    -0.6288  3273.3920 C.ar     997 DA      0.0000
   1895 N6        -0.8157    -1.9325  3273.1795 N.pl3    997 DA      0.0000
   1896 N1         0.3095     0.0739  3273.5157 N.ar     997 DA      0.0000
   1897 C2         0.3039     1.4212  3273.7402 C.ar     997 DA      0.0000
   1898 N3        -0.7825     2.1821  3273.8561 N.ar     997 DA      0.0000
   1899 C4        -1.9288     1.4725  3273.7200 C.ar     997 DA      0.0000
   1900 H5'       -6.6943     3.1037  3276.9076 H        997 DA      0.0000
   1901 H5''      -5.2856     2.0524  3276.5962 H        997 DA      0.0000
   1902 H4'       -5.2637     4.7715  3276.3594 H        997 DA      0.0000
   1903 H3'       -6.7531     4.1104  3274.1781 H        997 DA      0.0000
   1904 H2'       -4.6398     4.3603  3272.4378 H        997 DA      0.0000
   1905 H2''      -5.3674     2.8173  3272.9641 H        997 DA      0.0000
   1906 H1'       -2.7892     4.0126  3273.6603 H        997 DA      0.0000
   1907 H8        -5.1040     0.9269  3273.6206 H        997 DA      0.0000
   1908 H2         1.2622     1.9108  3273.8315 H        997 DA      0.0000
   1909 H61       -0.0367    -2.4928  3273.4949 H        997 DA      0.0000
   1910 H62       -1.5815    -2.3765  3272.6933 H        997 DA      0.0000
   1911 P         -5.4172     6.8649  3273.0315 P.3      996 DA      0.0000
   1912 OP1       -5.3399     8.3301  3273.5514 O.co2    996 DA      0.0000
   1913 OP2       -6.5797     6.7411  3272.0978 O.co2    996 DA      0.0000
   1914 O5'       -3.9644     6.5202  3272.5288 O.3      996 DA      0.0000
   1915 C5'       -2.8400     7.3006  3272.9846 C.3      996 DA      0.0000
   1916 C4'       -1.6134     6.7599  3272.2827 C.3      996 DA      0.0000
   1917 O4'       -1.5869     5.3662  3272.1619 O.3      996 DA      0.0000
   1918 C3'       -1.4194     7.3221  3270.8752 C.3      996 DA      0.0000
   1919 O3'       -0.2315     8.1357  3270.8437 O.3      996 DA      0.0000
   1920 C2'       -1.4784     6.0862  3269.9756 C.3      996 DA      0.0000
   1921 C1'       -1.0006     4.9855  3270.8734 C.3      996 DA      0.0000
   1922 N9        -1.4882     3.6432  3270.5738 N.ar     996 DA      0.0000
   1923 C8        -2.7827     3.2076  3270.3790 C.ar     996 DA      0.0000
   1924 N7        -2.8814     1.9132  3270.1736 N.ar     996 DA      0.0000
   1925 C5        -1.5790     1.4590  3270.2481 C.ar     996 DA      0.0000
   1926 C6        -1.0211     0.1678  3270.1147 C.ar     996 DA      0.0000
   1927 N6        -1.7363    -0.9264  3269.8715 N.pl3    996 DA      0.0000
   1928 N1         0.3410     0.1018  3270.2635 N.ar     996 DA      0.0000
   1929 C2         1.0907     1.1919  3270.5160 C.ar     996 DA      0.0000
   1930 N3         0.6341     2.4402  3270.6549 N.ar     996 DA      0.0000
   1931 C4        -0.7081     2.5021  3270.5077 C.ar     996 DA      0.0000
   1932 H5'       -2.9849     8.3504  3272.7295 H        996 DA      0.0000
   1933 H5''      -2.7272     7.1934  3274.0634 H        996 DA      0.0000
   1934 H4'       -0.7449     7.0523  3272.8728 H        996 DA      0.0000
   1935 H3'       -2.2740     7.9565  3270.6402 H        996 DA      0.0000
   1936 H2'       -2.4970     5.8987  3269.6357 H        996 DA      0.0000
   1937 H2''      -0.8077     6.2020  3269.1243 H        996 DA      0.0000
   1938 H1'        0.0877     4.9899  3270.9345 H        996 DA      0.0000
   1939 H8        -3.6362     3.8693  3270.3940 H        996 DA      0.0000
   1940 H2         2.1559     1.0440  3270.6151 H        996 DA      0.0000
   1941 H61       -1.3110    -1.7940  3270.1655 H        996 DA      0.0000
   1942 H62       -2.6412    -0.8923  3269.4242 H        996 DA      0.0000
   1943 P          0.1985     8.8349  3269.4587 P.3      995 DT      0.0000
   1944 OP1        1.2347     9.9148  3269.5169 O.co2    995 DT      0.0000
   1945 OP2       -1.1404     9.2586  3268.9461 O.co2    995 DT      0.0000
   1946 O5'        0.9367     7.5165  3268.7556 O.3      995 DT      0.0000
   1947 C5'        1.7271     6.8228  3269.7679 C.3      995 DT      0.0000
   1948 C4'        2.7833     6.0142  3269.0850 C.3      995 DT      0.0000
   1949 O4'        2.4317     4.6750  3268.9046 O.3      995 DT      0.0000
   1950 C3'        3.1962     6.5523  3267.7237 C.3      995 DT      0.0000
   1951 O3'        4.5952     6.3953  3267.4564 O.3      995 DT      0.0000
   1952 C2'        2.2643     5.7233  3266.8304 C.3      995 DT      0.0000
   1953 C1'        2.3634     4.3551  3267.4704 C.3      995 DT      0.0000
   1954 N1         1.1381     3.5668  3267.2404 N.am     995 DT      0.0000
   1955 C2         1.2740     2.1951  3267.1188 C.2      995 DT      0.0000
   1956 O2         2.3827     1.6591  3267.1556 O.2      995 DT      0.0000
   1957 N3         0.1386     1.4497  3266.9514 N.am     995 DT      0.0000
   1958 C4        -1.0953     2.0196  3266.9029 C.2      995 DT      0.0000
   1959 O4        -2.0890     1.2554  3266.7174 O.2      995 DT      0.0000
   1960 C5        -1.2149     3.4298  3267.0513 C.2      995 DT      0.0000
   1961 C7        -2.5685     4.0974  3266.9992 C.3      995 DT      0.0000
   1962 C6        -0.0972     4.1431  3267.2243 C.2      995 DT      0.0000
   1963 H5'        2.1948     7.5516  3270.4300 H        995 DT      0.0000
   1964 H5''       1.0807     6.1641  3270.3480 H        995 DT      0.0000
   1965 H4'        3.6676     6.0334  3269.7220 H        995 DT      0.0000
   1966 H3'        2.9276     7.6062  3267.6517 H        995 DT      0.0000
   1967 H2'        1.2430     6.1031  3266.8610 H        995 DT      0.0000
   1968 H2''       2.6351     5.6972  3265.8058 H        995 DT      0.0000
   1969 H1'        3.2525     3.8201  3267.1364 H        995 DT      0.0000
   1970 H3         0.2193     0.4469  3266.8613 H        995 DT      0.0000
   1971 H6        -0.1757     5.2122  3267.3557 H        995 DT      0.0000
   1972 H71       -2.7476     4.4790  3265.9940 H        995 DT      0.0000
   1973 H72       -2.5939     4.9227  3267.7107 H        995 DT      0.0000
   1974 H73       -3.3412     3.3726  3267.2557 H        995 DT      0.0000
   1975 P          5.0867     6.8567  3265.9665 P.3      994 DT      0.0000
   1976 OP1        6.0087     8.0686  3266.1145 O.co2    994 DT      0.0000
   1977 OP2        3.8086     7.2729  3265.2967 O.co2    994 DT      0.0000
   1978 O5'        5.8062     5.6485  3265.3145 O.3      994 DT      0.0000
   1979 C5'        6.5110     4.6602  3266.0659 C.3      994 DT      0.0000
   1980 C4'        6.4447     3.3673  3265.3179 C.3      994 DT      0.0000
   1981 O4'        5.2183     2.6902  3265.2609 O.3      994 DT      0.0000
   1982 C3'        6.9294     3.3669  3263.8518 C.3      994 DT      0.0000
   1983 O3'        7.5129     2.0646  3263.7481 O.3      994 DT      0.0000
   1984 C2'        5.6022     3.4662  3263.0881 C.3      994 DT      0.0000
   1985 C1'        4.8604     2.3969  3263.8638 C.3      994 DT      0.0000
   1986 N1         3.3989     2.4275  3263.7576 N.am     994 DT      0.0000
   1987 C2         2.7704     1.1750  3263.7570 C.2      994 DT      0.0000
   1988 O2         3.4280     0.1332  3263.8001 O.2      994 DT      0.0000
   1989 N3         1.4062     1.1649  3263.7036 N.am     994 DT      0.0000
   1990 C4         0.6615     2.3052  3263.6438 C.2      994 DT      0.0000
   1991 O4        -0.5995     2.1902  3263.5814 O.2      994 DT      0.0000
   1992 C5         1.3248     3.5625  3263.6521 C.2      994 DT      0.0000
   1993 C7         0.5098     4.8375  3263.5906 C.3      994 DT      0.0000
   1994 C6         2.6594     3.5677  3263.7185 C.2      994 DT      0.0000
   1995 H5'        7.5511     4.9623  3266.1881 H        994 DT      0.0000
   1996 H5''       6.0457     4.5423  3267.0444 H        994 DT      0.0000
   1997 H4'        7.1210     2.6945  3265.8451 H        994 DT      0.0000
   1998 H3'        7.6245     4.1747  3263.6231 H        994 DT      0.0000
   1999 H2'        5.7093     3.2163  3262.0325 H        994 DT      0.0000
   2000 H2''       5.1405     4.4447  3263.2197 H        994 DT      0.0000
   2001 H1'        5.2321     1.4110  3263.5848 H        994 DT      0.0000
   2002 H3         0.9286     0.2750  3263.7084 H        994 DT      0.0000
   2003 H6         3.1722     4.5178  3263.7422 H        994 DT      0.0000
   2004 H71       -0.5505     4.5896  3263.5418 H        994 DT      0.0000
   2005 H72        0.7910     5.4058  3262.7040 H        994 DT      0.0000
   2006 H73        0.7025     5.4351  3264.4816 H        994 DT      0.0000
   2007 P          8.4185     1.5388  3262.6018 P.3      993 DC      0.0000
   2008 OP1        9.6561     0.8773  3263.2110 O.co2    993 DC      0.0000
   2009 OP2        8.8280     2.7473  3261.8200 O.co2    993 DC      0.0000
   2010 O5'        7.4131     0.4917  3261.8624 O.3      993 DC      0.0000
   2011 C5'        7.1847    -0.7614  3262.5869 C.3      993 DC      0.0000
   2012 C4'        7.0132    -1.8277  3261.5364 C.3      993 DC      0.0000
   2013 O4'        5.6577    -2.1221  3261.2911 O.3      993 DC      0.0000
   2014 C3'        7.6238    -1.5033  3260.1720 C.3      993 DC      0.0000
   2015 O3'        8.1335    -2.6347  3259.4627 O.3      993 DC      0.0000
   2016 C2'        6.4369    -0.8130  3259.4859 C.3      993 DC      0.0000
   2017 C1'        5.2422    -1.5923  3260.0325 C.3      993 DC      0.0000
   2018 N1         4.1009    -0.6546  3260.1503 N.am     993 DC      0.0000
   2019 C2         2.8228    -1.2112  3260.1675 C.2      993 DC      0.0000
   2020 O2         2.6570    -2.4368  3260.0988 O.2      993 DC      0.0000
   2021 N3         1.7653    -0.3484  3260.2707 N.2      993 DC      0.0000
   2022 C4         1.9355     0.9977  3260.3415 C.2      993 DC      0.0000
   2023 N4         0.8722     1.7982  3260.4434 N.pl3    993 DC      0.0000
   2024 C5         3.2508     1.5398  3260.3164 C.2      993 DC      0.0000
   2025 C6         4.2891     0.6915  3260.2228 C.2      993 DC      0.0000
   2026 H5'        8.0395    -0.9914  3263.2229 H        993 DC      0.0000
   2027 H5''       6.2805    -0.6839  3263.1908 H        993 DC      0.0000
   2028 H4'        7.4888    -2.7365  3261.9052 H        993 DC      0.0000
   2029 H3'        8.4263    -0.7781  3260.3062 H        993 DC      0.0000
   2030 H2'        6.5025    -0.9019  3258.4015 H        993 DC      0.0000
   2031 H2''       6.3792     0.2344  3259.7818 H        993 DC      0.0000
   2032 H1'        4.9866    -2.4054  3259.3531 H        993 DC      0.0000
   2033 H5         3.4108     2.6065  3260.3711 H        993 DC      0.0000
   2034 H6         5.2942     1.0864  3260.2047 H        993 DC      0.0000
   2035 H41       -0.0572     1.4033  3260.4641 H        993 DC      0.0000
   2036 H42        0.9970     2.7989  3260.4998 H        993 DC      0.0000
   2037 P          8.0699    -2.8597  3257.8307 P.3      992 DA      0.0000
   2038 OP1        9.1685    -3.8250  3257.4412 O.co2    992 DA      0.0000
   2039 OP2        8.2089    -1.4921  3257.2606 O.co2    992 DA      0.0000
   2040 O5'        6.6691    -3.6073  3257.6652 O.3      992 DA      0.0000
   2041 C5'        6.5741    -5.0095  3258.1306 C.3      992 DA      0.0000
   2042 C4'        5.4589    -5.5523  3257.2533 C.3      992 DA      0.0000
   2043 O4'        4.2432    -4.8417  3257.5207 O.3      992 DA      0.0000
   2044 C3'        5.7076    -5.3433  3255.7489 C.3      992 DA      0.0000
   2045 O3'        4.8673    -6.1702  3254.9599 O.3      992 DA      0.0000
   2046 C2'        5.1633    -3.9152  3255.5614 C.3      992 DA      0.0000
   2047 C1'        3.8320    -4.1812  3256.3161 C.3      992 DA      0.0000
   2048 N9         3.2249    -2.8622  3256.4615 N.ar     992 DA      0.0000
   2049 C8         3.8897    -1.6585  3256.5344 C.ar     992 DA      0.0000
   2050 N7         3.0891    -0.6288  3256.6490 N.ar     992 DA      0.0000
   2051 C5         1.8067    -1.2062  3256.6426 C.ar     992 DA      0.0000
   2052 C6         0.5176    -0.6143  3256.7426 C.ar     992 DA      0.0000
   2053 N6         0.3108     0.7000  3256.8654 N.pl3    992 DA      0.0000
   2054 N1        -0.5142    -1.5033  3256.7074 N.ar     992 DA      0.0000
   2055 C2        -0.3048    -2.8373  3256.5885 C.ar     992 DA      0.0000
   2056 N3         0.8744    -3.4588  3256.4971 N.ar     992 DA      0.0000
   2057 C4         1.8845    -2.5719  3256.5246 C.ar     992 DA      0.0000
   2058 H5'        7.5075    -5.5471  3257.9639 H        992 DA      0.0000
   2059 H5''       6.2901    -5.0478  3259.1822 H        992 DA      0.0000
   2060 H4'        5.3157    -6.6134  3257.4573 H        992 DA      0.0000
   2061 H3'        6.7600    -5.4321  3255.4793 H        992 DA      0.0000
   2062 H2'        5.7814    -3.1575  3256.0431 H        992 DA      0.0000
   2063 H2''       4.9908    -3.6850  3254.5101 H        992 DA      0.0000
   2064 H1'        3.1864    -4.8331  3255.7277 H        992 DA      0.0000
   2065 H8         4.9658    -1.5723  3256.5004 H        992 DA      0.0000
   2066 H2        -1.1840    -3.4639  3256.5653 H        992 DA      0.0000
   2067 H61        1.0961     1.3346  3256.8902 H        992 DA      0.0000
   2068 H62       -0.6308     1.0589  3256.9335 H        992 DA      0.0000
   2069 P          5.4753    -7.0923  3253.8190 P.3      991 DC      0.0000
   2070 OP1        5.9176    -8.3191  3254.5992 O.co2    991 DC      0.0000
   2071 OP2        6.5739    -6.4447  3253.0933 O.co2    991 DC      0.0000
   2072 O5'        4.1638    -7.2711  3252.8431 O.3      991 DC      0.0000
   2073 C5'        2.9279    -7.7311  3253.5121 C.3      991 DC      0.0000
   2074 C4'        1.7521    -7.0451  3252.8681 C.3      991 DC      0.0000
   2075 O4'        1.3777    -5.8298  3253.5052 O.3      991 DC      0.0000
   2076 C3'        1.9985    -6.6963  3251.3903 C.3      991 DC      0.0000
   2077 O3'        0.8324    -6.7636  3250.5790 O.3      991 DC      0.0000
   2078 C2'        2.4198    -5.1994  3251.5559 C.3      991 DC      0.0000
   2079 C1'        1.1702    -4.8660  3252.4515 C.3      991 DC      0.0000
   2080 N1         1.1900    -3.4464  3252.6894 N.am     991 DC      0.0000
   2081 C2        -0.0008    -2.8132  3253.0065 C.2      991 DC      0.0000
   2082 O2        -1.1341    -3.2867  3253.1470 O.2      991 DC      0.0000
   2083 N3         0.0248    -1.4606  3253.2047 N.2      991 DC      0.0000
   2084 C4         1.1772    -0.7331  3253.0888 C.2      991 DC      0.0000
   2085 N4         1.1557     0.5915  3253.3048 N.pl3    991 DC      0.0000
   2086 C5         2.3912    -1.3967  3252.7591 C.2      991 DC      0.0000
   2087 C6         2.3406    -2.7200  3252.5674 C.2      991 DC      0.0000
   2088 H5'        2.8296    -8.8110  3253.4006 H        991 DC      0.0000
   2089 H5''       2.9670    -7.4742  3254.5707 H        991 DC      0.0000
   2090 H4'        0.9008    -7.7242  3252.9148 H        991 DC      0.0000
   2091 H3'        2.8088    -7.2929  3250.9712 H        991 DC      0.0000
   2092 H2'        3.3707    -5.0711  3252.0730 H        991 DC      0.0000
   2093 H2''       2.3961    -4.6624  3250.6077 H        991 DC      0.0000
   2094 H1'        0.2620    -5.1236  3251.9066 H        991 DC      0.0000
   2095 H5         3.3196    -0.8526  3252.6670 H        991 DC      0.0000
   2096 H6         3.2512    -3.2376  3252.3042 H        991 DC      0.0000
   2097 H41        0.2885     1.0499  3253.5453 H        991 DC      0.0000
   2098 H42        2.0068     1.1298  3253.2269 H        991 DC      0.0000
@<TRIPOS>BOND
     1      9     31 1
     2     39     63 1
     3    101    126 1
     4    134    158 1
     5      1      2 1
     6      1      3 1
     7      1      4 1
     8      4      5 1
     9      5      6 1
    10      6      7 1
    11      6      8 1
    12      7     11 1
    13      8      9 1
    14      8     10 1
    15     10     11 1
    16     11     12 1
    17     12     13 am
    18     12     19 1
    19     13     14 2
    20     13     15 1
    21     15     16 2
    22     16     17 2
    23     16     18 2
    24     18     19 2
    25     31     32 1
    26     31     33 1
    27     31     34 1
    28     34     35 1
    29     35     36 1
    30     36     37 1
    31     36     38 1
    32     37     41 1
    33     38     39 1
    34     38     40 1
    35     40     41 1
    36     41     42 1
    37     42     43 ar
    38     42     51 ar
    39     43     44 ar
    40     44     45 ar
    41     45     46 ar
    42     45     51 ar
    43     46     47 1
    44     46     48 ar
    45     48     49 ar
    46     49     50 ar
    47     50     51 ar
    48     63     64 1
    49     63     65 1
    50     63     66 1
    51     66     67 1
    52     67     68 1
    53     68     69 1
    54     68     70 1
    55     69     73 1
    56     70     71 1
    57     70     72 1
    58     72     73 1
    59     73     74 1
    60     74     75 am
    61     74     81 1
    62     75     76 2
    63     75     77 1
    64     77     78 2
    65     78     79 2
    66     78     80 2
    67     80     81 2
    68     93     94 1
    69     93     95 1
    70     93     96 1
    71     96     97 1
    72     97     98 1
    73     98     99 1
    74     98    100 1
    75     99    103 1
    76    100    101 1
    77    100    102 1
    78    102    103 1
    79    103    104 1
    80    104    105 ar
    81    104    114 ar
    82    105    106 ar
    83    106    107 ar
    84    107    108 1
    85    107    114 ar
    86    108    109 2
    87    108    110 am
    88    110    111 1
    89    111    112 2
    90    111    113 2
    91    113    114 1
    92    126    127 1
    93    126    128 1
    94    126    129 1
    95    129    130 1
    96    130    131 1
    97    131    132 1
    98    131    133 1
    99    132    136 1
   100    133    134 1
   101    133    135 1
   102    135    136 1
   103    136    137 1
   104    137    138 am
   105    137    145 1
   106    138    139 2
   107    138    140 am
   108    140    141 am
   109    141    142 2
   110    141    143 1
   111    143    144 1
   112    143    145 2
   113    158    159 1
   114    158    160 1
   115    158    161 1
   116    161    162 1
   117    162    163 1
   118    163    164 1
   119    163    165 1
   120    164    168 1
   121    165    166 1
   122    165    167 1
   123    167    168 1
   124    168    169 1
   125    169    170 ar
   126    169    179 ar
   127    170    171 ar
   128    171    172 ar
   129    172    173 1
   130    172    179 ar
   131    173    174 2
   132    173    175 am
   133    175    176 1
   134    176    177 2
   135    176    178 2
   136    178    179 1
   137     20      5 1
   138     21      5 1
   139     22      6 1
   140     23      8 1
   141     24     10 1
   142     25     10 1
   143     26     11 1
   144     27     18 1
   145     28     19 1
   146     52     35 1
   147     53     35 1
   148     54     36 1
   149     55     38 1
   150     56     40 1
   151     57     40 1
   152     58     41 1
   153     59     43 1
   154     60     49 1
   155     82     67 1
   156     83     67 1
   157     84     68 1
   158     85     70 1
   159     86     72 1
   160     87     72 1
   161     88     73 1
   162     89     80 1
   163     90     81 1
   164    115     97 1
   165    116     97 1
   166    117     98 1
   167    118    100 1
   168    119    102 1
   169    120    102 1
   170    121    103 1
   171    122    105 1
   172    123    110 1
   173    146    130 1
   174    147    130 1
   175    148    131 1
   176    149    133 1
   177    150    135 1
   178    151    135 1
   179    152    136 1
   180    153    140 1
   181    154    145 1
   182    180    162 1
   183    181    162 1
   184    182    163 1
   185    183    165 1
   186    184    167 1
   187    185    167 1
   188    186    168 1
   189    187    170 1
   190    188    175 1
   191     29     17 1
   192     30     17 1
   193     91     79 1
   194     92     79 1
   195    124    112 1
   196    125    112 1
   197    189    177 1
   198    190    177 1
   199     61     47 1
   200     62     47 1
   201    155    144 1
   202    156    144 1
   203    157    144 1
   204     71    191 1
   205     93    805 1
   206    199    224 1
   207    232    256 1
   208    264    289 1
   209    297    321 1
   210    329    353 1
   211    361    385 1
   212    393    417 1
   213    425    447 1
   214    455    479 1
   215    517    542 1
   216    550    574 1
   217    582    607 1
   218    615    639 1
   219    647    671 1
   220    679    703 1
   221    711    735 1
   222    743    765 1
   223    773    797 1
   224    191    192 1
   225    191    193 1
   226    191    194 1
   227    194    195 1
   228    195    196 1
   229    196    197 1
   230    196    198 1
   231    197    201 1
   232    198    199 1
   233    198    200 1
   234    200    201 1
   235    201    202 1
   236    202    203 ar
   237    202    212 ar
   238    203    204 ar
   239    204    205 ar
   240    205    206 1
   241    205    212 ar
   242    206    207 2
   243    206    208 am
   244    208    209 1
   245    209    210 2
   246    209    211 2
   247    211    212 1
   248    224    225 1
   249    224    226 1
   250    224    227 1
   251    227    228 1
   252    228    229 1
   253    229    230 1
   254    229    231 1
   255    230    234 1
   256    231    232 1
   257    231    233 1
   258    233    234 1
   259    234    235 1
   260    235    236 am
   261    235    243 1
   262    236    237 2
   263    236    238 am
   264    238    239 am
   265    239    240 2
   266    239    241 1
   267    241    242 1
   268    241    243 2
   269    256    257 1
   270    256    258 1
   271    256    259 1
   272    259    260 1
   273    260    261 1
   274    261    262 1
   275    261    263 1
   276    262    266 1
   277    263    264 1
   278    263    265 1
   279    265    266 1
   280    266    267 1
   281    267    268 ar
   282    267    277 ar
   283    268    269 ar
   284    269    270 ar
   285    270    271 1
   286    270    277 ar
   287    271    272 2
   288    271    273 am
   289    273    274 1
   290    274    275 2
   291    274    276 2
   292    276    277 1
   293    289    290 1
   294    289    291 1
   295    289    292 1
   296    292    293 1
   297    293    294 1
   298    294    295 1
   299    294    296 1
   300    295    299 1
   301    296    297 1
   302    296    298 1
   303    298    299 1
   304    299    300 1
   305    300    301 ar
   306    300    309 ar
   307    301    302 ar
   308    302    303 ar
   309    303    304 ar
   310    303    309 ar
   311    304    305 1
   312    304    306 ar
   313    306    307 ar
   314    307    308 ar
   315    308    309 ar
   316    321    322 1
   317    321    323 1
   318    321    324 1
   319    324    325 1
   320    325    326 1
   321    326    327 1
   322    326    328 1
   323    327    331 1
   324    328    329 1
   325    328    330 1
   326    330    331 1
   327    331    332 1
   328    332    333 ar
   329    332    341 ar
   330    333    334 ar
   331    334    335 ar
   332    335    336 ar
   333    335    341 ar
   334    336    337 1
   335    336    338 ar
   336    338    339 ar
   337    339    340 ar
   338    340    341 ar
   339    353    354 1
   340    353    355 1
   341    353    356 1
   342    356    357 1
   343    357    358 1
   344    358    359 1
   345    358    360 1
   346    359    363 1
   347    360    361 1
   348    360    362 1
   349    362    363 1
   350    363    364 1
   351    364    365 am
   352    364    372 1
   353    365    366 2
   354    365    367 am
   355    367    368 am
   356    368    369 2
   357    368    370 1
   358    370    371 1
   359    370    372 2
   360    385    386 1
   361    385    387 1
   362    385    388 1
   363    388    389 1
   364    389    390 1
   365    390    391 1
   366    390    392 1
   367    391    395 1
   368    392    393 1
   369    392    394 1
   370    394    395 1
   371    395    396 1
   372    396    397 am
   373    396    404 1
   374    397    398 2
   375    397    399 am
   376    399    400 am
   377    400    401 2
   378    400    402 1
   379    402    403 1
   380    402    404 2
   381    417    418 1
   382    417    419 1
   383    417    420 1
   384    420    421 1
   385    421    422 1
   386    422    423 1
   387    422    424 1
   388    423    427 1
   389    424    425 1
   390    424    426 1
   391    426    427 1
   392    427    428 1
   393    428    429 am
   394    428    435 1
   395    429    430 2
   396    429    431 1
   397    431    432 2
   398    432    433 2
   399    432    434 2
   400    434    435 2
   401    447    448 1
   402    447    449 1
   403    447    450 1
   404    450    451 1
   405    451    452 1
   406    452    453 1
   407    452    454 1
   408    453    457 1
   409    454    455 1
   410    454    456 1
   411    456    457 1
   412    457    458 1
   413    458    459 ar
   414    458    467 ar
   415    459    460 ar
   416    460    461 ar
   417    461    462 ar
   418    461    467 ar
   419    462    463 1
   420    462    464 ar
   421    464    465 ar
   422    465    466 ar
   423    466    467 ar
   424    479    480 1
   425    479    481 1
   426    479    482 1
   427    482    483 1
   428    483    484 1
   429    484    485 1
   430    484    486 1
   431    485    489 1
   432    486    487 1
   433    486    488 1
   434    488    489 1
   435    489    490 1
   436    490    491 am
   437    490    497 1
   438    491    492 2
   439    491    493 1
   440    493    494 2
   441    494    495 2
   442    494    496 2
   443    496    497 2
   444    509    510 1
   445    509    511 1
   446    509    512 1
   447    512    513 1
   448    513    514 1
   449    514    515 1
   450    514    516 1
   451    515    519 1
   452    516    517 1
   453    516    518 1
   454    518    519 1
   455    519    520 1
   456    520    521 ar
   457    520    530 ar
   458    521    522 ar
   459    522    523 ar
   460    523    524 1
   461    523    530 ar
   462    524    525 2
   463    524    526 am
   464    526    527 1
   465    527    528 2
   466    527    529 2
   467    529    530 1
   468    542    543 1
   469    542    544 1
   470    542    545 1
   471    545    546 1
   472    546    547 1
   473    547    548 1
   474    547    549 1
   475    548    552 1
   476    549    550 1
   477    549    551 1
   478    551    552 1
   479    552    553 1
   480    553    554 am
   481    553    561 1
   482    554    555 2
   483    554    556 am
   484    556    557 am
   485    557    558 2
   486    557    559 1
   487    559    560 1
   488    559    561 2
   489    574    575 1
   490    574    576 1
   491    574    577 1
   492    577    578 1
   493    578    579 1
   494    579    580 1
   495    579    581 1
   496    580    584 1
   497    581    582 1
   498    581    583 1
   499    583    584 1
   500    584    585 1
   501    585    586 ar
   502    585    595 ar
   503    586    587 ar
   504    587    588 ar
   505    588    589 1
   506    588    595 ar
   507    589    590 2
   508    589    591 am
   509    591    592 1
   510    592    593 2
   511    592    594 2
   512    594    595 1
   513    607    608 1
   514    607    609 1
   515    607    610 1
   516    610    611 1
   517    611    612 1
   518    612    613 1
   519    612    614 1
   520    613    617 1
   521    614    615 1
   522    614    616 1
   523    616    617 1
   524    617    618 1
   525    618    619 ar
   526    618    627 ar
   527    619    620 ar
   528    620    621 ar
   529    621    622 ar
   530    621    627 ar
   531    622    623 1
   532    622    624 ar
   533    624    625 ar
   534    625    626 ar
   535    626    627 ar
   536    639    640 1
   537    639    641 1
   538    639    642 1
   539    642    643 1
   540    643    644 1
   541    644    645 1
   542    644    646 1
   543    645    649 1
   544    646    647 1
   545    646    648 1
   546    648    649 1
   547    649    650 1
   548    650    651 ar
   549    650    659 ar
   550    651    652 ar
   551    652    653 ar
   552    653    654 ar
   553    653    659 ar
   554    654    655 1
   555    654    656 ar
   556    656    657 ar
   557    657    658 ar
   558    658    659 ar
   559    671    672 1
   560    671    673 1
   561    671    674 1
   562    674    675 1
   563    675    676 1
   564    676    677 1
   565    676    678 1
   566    677    681 1
   567    678    679 1
   568    678    680 1
   569    680    681 1
   570    681    682 1
   571    682    683 am
   572    682    690 1
   573    683    684 2
   574    683    685 am
   575    685    686 am
   576    686    687 2
   577    686    688 1
   578    688    689 1
   579    688    690 2
   580    703    704 1
   581    703    705 1
   582    703    706 1
   583    706    707 1
   584    707    708 1
   585    708    709 1
   586    708    710 1
   587    709    713 1
   588    710    711 1
   589    710    712 1
   590    712    713 1
   591    713    714 1
   592    714    715 am
   593    714    722 1
   594    715    716 2
   595    715    717 am
   596    717    718 am
   597    718    719 2
   598    718    720 1
   599    720    721 1
   600    720    722 2
   601    735    736 1
   602    735    737 1
   603    735    738 1
   604    738    739 1
   605    739    740 1
   606    740    741 1
   607    740    742 1
   608    741    745 1
   609    742    743 1
   610    742    744 1
   611    744    745 1
   612    745    746 1
   613    746    747 am
   614    746    753 1
   615    747    748 2
   616    747    749 1
   617    749    750 2
   618    750    751 2
   619    750    752 2
   620    752    753 2
   621    765    766 1
   622    765    767 1
   623    765    768 1
   624    768    769 1
   625    769    770 1
   626    770    771 1
   627    770    772 1
   628    771    775 1
   629    772    773 1
   630    772    774 1
   631    774    775 1
   632    775    776 1
   633    776    777 ar
   634    776    785 ar
   635    777    778 ar
   636    778    779 ar
   637    779    780 ar
   638    779    785 ar
   639    780    781 1
   640    780    782 ar
   641    782    783 ar
   642    783    784 ar
   643    784    785 ar
   644    797    798 1
   645    797    799 1
   646    797    800 1
   647    800    801 1
   648    801    802 1
   649    802    803 1
   650    802    804 1
   651    803    807 1
   652    804    805 1
   653    804    806 1
   654    806    807 1
   655    807    808 1
   656    808    809 am
   657    808    815 1
   658    809    810 2
   659    809    811 1
   660    811    812 2
   661    812    813 2
   662    812    814 2
   663    814    815 2
   664    213    195 1
   665    214    195 1
   666    215    196 1
   667    216    198 1
   668    217    200 1
   669    218    200 1
   670    219    201 1
   671    220    203 1
   672    221    208 1
   673    244    228 1
   674    245    228 1
   675    246    229 1
   676    247    231 1
   677    248    233 1
   678    249    233 1
   679    250    234 1
   680    251    238 1
   681    252    243 1
   682    278    260 1
   683    279    260 1
   684    280    261 1
   685    281    263 1
   686    282    265 1
   687    283    265 1
   688    284    266 1
   689    285    268 1
   690    286    273 1
   691    310    293 1
   692    311    293 1
   693    312    294 1
   694    313    296 1
   695    314    298 1
   696    315    298 1
   697    316    299 1
   698    317    301 1
   699    318    307 1
   700    342    325 1
   701    343    325 1
   702    344    326 1
   703    345    328 1
   704    346    330 1
   705    347    330 1
   706    348    331 1
   707    349    333 1
   708    350    339 1
   709    373    357 1
   710    374    357 1
   711    375    358 1
   712    376    360 1
   713    377    362 1
   714    378    362 1
   715    379    363 1
   716    380    367 1
   717    381    372 1
   718    405    389 1
   719    406    389 1
   720    407    390 1
   721    408    392 1
   722    409    394 1
   723    410    394 1
   724    411    395 1
   725    412    399 1
   726    413    404 1
   727    436    421 1
   728    437    421 1
   729    438    422 1
   730    439    424 1
   731    440    426 1
   732    441    426 1
   733    442    427 1
   734    443    434 1
   735    444    435 1
   736    468    451 1
   737    469    451 1
   738    470    452 1
   739    471    454 1
   740    472    456 1
   741    473    456 1
   742    474    457 1
   743    475    459 1
   744    476    465 1
   745    498    483 1
   746    499    483 1
   747    500    484 1
   748    501    486 1
   749    502    488 1
   750    503    488 1
   751    504    489 1
   752    505    496 1
   753    506    497 1
   754    531    513 1
   755    532    513 1
   756    533    514 1
   757    534    516 1
   758    535    518 1
   759    536    518 1
   760    537    519 1
   761    538    521 1
   762    539    526 1
   763    562    546 1
   764    563    546 1
   765    564    547 1
   766    565    549 1
   767    566    551 1
   768    567    551 1
   769    568    552 1
   770    569    556 1
   771    570    561 1
   772    596    578 1
   773    597    578 1
   774    598    579 1
   775    599    581 1
   776    600    583 1
   777    601    583 1
   778    602    584 1
   779    603    586 1
   780    604    591 1
   781    628    611 1
   782    629    611 1
   783    630    612 1
   784    631    614 1
   785    632    616 1
   786    633    616 1
   787    634    617 1
   788    635    619 1
   789    636    625 1
   790    660    643 1
   791    661    643 1
   792    662    644 1
   793    663    646 1
   794    664    648 1
   795    665    648 1
   796    666    649 1
   797    667    651 1
   798    668    657 1
   799    691    675 1
   800    692    675 1
   801    693    676 1
   802    694    678 1
   803    695    680 1
   804    696    680 1
   805    697    681 1
   806    698    685 1
   807    699    690 1
   808    723    707 1
   809    724    707 1
   810    725    708 1
   811    726    710 1
   812    727    712 1
   813    728    712 1
   814    729    713 1
   815    730    717 1
   816    731    722 1
   817    754    739 1
   818    755    739 1
   819    756    740 1
   820    757    742 1
   821    758    744 1
   822    759    744 1
   823    760    745 1
   824    761    752 1
   825    762    753 1
   826    786    769 1
   827    787    769 1
   828    788    770 1
   829    789    772 1
   830    790    774 1
   831    791    774 1
   832    792    775 1
   833    793    777 1
   834    794    783 1
   835    816    801 1
   836    817    801 1
   837    818    802 1
   838    819    804 1
   839    820    806 1
   840    821    806 1
   841    822    807 1
   842    823    814 1
   843    824    815 1
   844    222    210 1
   845    223    210 1
   846    287    275 1
   847    288    275 1
   848    445    433 1
   849    446    433 1
   850    507    495 1
   851    508    495 1
   852    540    528 1
   853    541    528 1
   854    605    593 1
   855    606    593 1
   856    763    751 1
   857    764    751 1
   858    825    813 1
   859    826    813 1
   860    319    305 1
   861    320    305 1
   862    351    337 1
   863    352    337 1
   864    477    463 1
   865    478    463 1
   866    637    623 1
   867    638    623 1
   868    669    655 1
   869    670    655 1
   870    795    781 1
   871    796    781 1
   872    253    242 1
   873    254    242 1
   874    255    242 1
   875    382    371 1
   876    383    371 1
   877    384    371 1
   878    414    403 1
   879    415    403 1
   880    416    403 1
   881    571    560 1
   882    572    560 1
   883    573    560 1
   884    700    689 1
   885    701    689 1
   886    702    689 1
   887    732    721 1
   888    733    721 1
   889    734    721 1
   890    487    827 1
   891    509   1441 1
   892    835    860 1
   893    868    892 1
   894    900    925 1
   895    933    957 1
   896    965    989 1
   897    997   1021 1
   898   1029   1053 1
   899   1061   1083 1
   900   1091   1115 1
   901   1153   1178 1
   902   1186   1210 1
   903   1218   1243 1
   904   1251   1275 1
   905   1283   1307 1
   906   1315   1339 1
   907   1347   1371 1
   908   1379   1401 1
   909   1409   1433 1
   910    827    828 1
   911    827    829 1
   912    827    830 1
   913    830    831 1
   914    831    832 1
   915    832    833 1
   916    832    834 1
   917    833    837 1
   918    834    835 1
   919    834    836 1
   920    836    837 1
   921    837    838 1
   922    838    839 ar
   923    838    848 ar
   924    839    840 ar
   925    840    841 ar
   926    841    842 1
   927    841    848 ar
   928    842    843 2
   929    842    844 am
   930    844    845 1
   931    845    846 2
   932    845    847 2
   933    847    848 1
   934    860    861 1
   935    860    862 1
   936    860    863 1
   937    863    864 1
   938    864    865 1
   939    865    866 1
   940    865    867 1
   941    866    870 1
   942    867    868 1
   943    867    869 1
   944    869    870 1
   945    870    871 1
   946    871    872 am
   947    871    879 1
   948    872    873 2
   949    872    874 am
   950    874    875 am
   951    875    876 2
   952    875    877 1
   953    877    878 1
   954    877    879 2
   955    892    893 1
   956    892    894 1
   957    892    895 1
   958    895    896 1
   959    896    897 1
   960    897    898 1
   961    897    899 1
   962    898    902 1
   963    899    900 1
   964    899    901 1
   965    901    902 1
   966    902    903 1
   967    903    904 ar
   968    903    913 ar
   969    904    905 ar
   970    905    906 ar
   971    906    907 1
   972    906    913 ar
   973    907    908 2
   974    907    909 am
   975    909    910 1
   976    910    911 2
   977    910    912 2
   978    912    913 1
   979    925    926 1
   980    925    927 1
   981    925    928 1
   982    928    929 1
   983    929    930 1
   984    930    931 1
   985    930    932 1
   986    931    935 1
   987    932    933 1
   988    932    934 1
   989    934    935 1
   990    935    936 1
   991    936    937 ar
   992    936    945 ar
   993    937    938 ar
   994    938    939 ar
   995    939    940 ar
   996    939    945 ar
   997    940    941 1
   998    940    942 ar
   999    942    943 ar
  1000    943    944 ar
  1001    944    945 ar
  1002    957    958 1
  1003    957    959 1
  1004    957    960 1
  1005    960    961 1
  1006    961    962 1
  1007    962    963 1
  1008    962    964 1
  1009    963    967 1
  1010    964    965 1
  1011    964    966 1
  1012    966    967 1
  1013    967    968 1
  1014    968    969 ar
  1015    968    977 ar
  1016    969    970 ar
  1017    970    971 ar
  1018    971    972 ar
  1019    971    977 ar
  1020    972    973 1
  1021    972    974 ar
  1022    974    975 ar
  1023    975    976 ar
  1024    976    977 ar
  1025    989    990 1
  1026    989    991 1
  1027    989    992 1
  1028    992    993 1
  1029    993    994 1
  1030    994    995 1
  1031    994    996 1
  1032    995    999 1
  1033    996    997 1
  1034    996    998 1
  1035    998    999 1
  1036    999   1000 1
  1037   1000   1001 am
  1038   1000   1008 1
  1039   1001   1002 2
  1040   1001   1003 am
  1041   1003   1004 am
  1042   1004   1005 2
  1043   1004   1006 1
  1044   1006   1007 1
  1045   1006   1008 2
  1046   1021   1022 1
  1047   1021   1023 1
  1048   1021   1024 1
  1049   1024   1025 1
  1050   1025   1026 1
  1051   1026   1027 1
  1052   1026   1028 1
  1053   1027   1031 1
  1054   1028   1029 1
  1055   1028   1030 1
  1056   1030   1031 1
  1057   1031   1032 1
  1058   1032   1033 am
  1059   1032   1040 1
  1060   1033   1034 2
  1061   1033   1035 am
  1062   1035   1036 am
  1063   1036   1037 2
  1064   1036   1038 1
  1065   1038   1039 1
  1066   1038   1040 2
  1067   1053   1054 1
  1068   1053   1055 1
  1069   1053   1056 1
  1070   1056   1057 1
  1071   1057   1058 1
  1072   1058   1059 1
  1073   1058   1060 1
  1074   1059   1063 1
  1075   1060   1061 1
  1076   1060   1062 1
  1077   1062   1063 1
  1078   1063   1064 1
  1079   1064   1065 am
  1080   1064   1071 1
  1081   1065   1066 2
  1082   1065   1067 1
  1083   1067   1068 2
  1084   1068   1069 2
  1085   1068   1070 2
  1086   1070   1071 2
  1087   1083   1084 1
  1088   1083   1085 1
  1089   1083   1086 1
  1090   1086   1087 1
  1091   1087   1088 1
  1092   1088   1089 1
  1093   1088   1090 1
  1094   1089   1093 1
  1095   1090   1091 1
  1096   1090   1092 1
  1097   1092   1093 1
  1098   1093   1094 1
  1099   1094   1095 ar
  1100   1094   1103 ar
  1101   1095   1096 ar
  1102   1096   1097 ar
  1103   1097   1098 ar
  1104   1097   1103 ar
  1105   1098   1099 1
  1106   1098   1100 ar
  1107   1100   1101 ar
  1108   1101   1102 ar
  1109   1102   1103 ar
  1110   1115   1116 1
  1111   1115   1117 1
  1112   1115   1118 1
  1113   1118   1119 1
  1114   1119   1120 1
  1115   1120   1121 1
  1116   1120   1122 1
  1117   1121   1125 1
  1118   1122   1123 1
  1119   1122   1124 1
  1120   1124   1125 1
  1121   1125   1126 1
  1122   1126   1127 am
  1123   1126   1133 1
  1124   1127   1128 2
  1125   1127   1129 1
  1126   1129   1130 2
  1127   1130   1131 2
  1128   1130   1132 2
  1129   1132   1133 2
  1130   1145   1146 1
  1131   1145   1147 1
  1132   1145   1148 1
  1133   1148   1149 1
  1134   1149   1150 1
  1135   1150   1151 1
  1136   1150   1152 1
  1137   1151   1155 1
  1138   1152   1153 1
  1139   1152   1154 1
  1140   1154   1155 1
  1141   1155   1156 1
  1142   1156   1157 ar
  1143   1156   1166 ar
  1144   1157   1158 ar
  1145   1158   1159 ar
  1146   1159   1160 1
  1147   1159   1166 ar
  1148   1160   1161 2
  1149   1160   1162 am
  1150   1162   1163 1
  1151   1163   1164 2
  1152   1163   1165 2
  1153   1165   1166 1
  1154   1178   1179 1
  1155   1178   1180 1
  1156   1178   1181 1
  1157   1181   1182 1
  1158   1182   1183 1
  1159   1183   1184 1
  1160   1183   1185 1
  1161   1184   1188 1
  1162   1185   1186 1
  1163   1185   1187 1
  1164   1187   1188 1
  1165   1188   1189 1
  1166   1189   1190 am
  1167   1189   1197 1
  1168   1190   1191 2
  1169   1190   1192 am
  1170   1192   1193 am
  1171   1193   1194 2
  1172   1193   1195 1
  1173   1195   1196 1
  1174   1195   1197 2
  1175   1210   1211 1
  1176   1210   1212 1
  1177   1210   1213 1
  1178   1213   1214 1
  1179   1214   1215 1
  1180   1215   1216 1
  1181   1215   1217 1
  1182   1216   1220 1
  1183   1217   1218 1
  1184   1217   1219 1
  1185   1219   1220 1
  1186   1220   1221 1
  1187   1221   1222 ar
  1188   1221   1231 ar
  1189   1222   1223 ar
  1190   1223   1224 ar
  1191   1224   1225 1
  1192   1224   1231 ar
  1193   1225   1226 2
  1194   1225   1227 am
  1195   1227   1228 1
  1196   1228   1229 2
  1197   1228   1230 2
  1198   1230   1231 1
  1199   1243   1244 1
  1200   1243   1245 1
  1201   1243   1246 1
  1202   1246   1247 1
  1203   1247   1248 1
  1204   1248   1249 1
  1205   1248   1250 1
  1206   1249   1253 1
  1207   1250   1251 1
  1208   1250   1252 1
  1209   1252   1253 1
  1210   1253   1254 1
  1211   1254   1255 ar
  1212   1254   1263 ar
  1213   1255   1256 ar
  1214   1256   1257 ar
  1215   1257   1258 ar
  1216   1257   1263 ar
  1217   1258   1259 1
  1218   1258   1260 ar
  1219   1260   1261 ar
  1220   1261   1262 ar
  1221   1262   1263 ar
  1222   1275   1276 1
  1223   1275   1277 1
  1224   1275   1278 1
  1225   1278   1279 1
  1226   1279   1280 1
  1227   1280   1281 1
  1228   1280   1282 1
  1229   1281   1285 1
  1230   1282   1283 1
  1231   1282   1284 1
  1232   1284   1285 1
  1233   1285   1286 1
  1234   1286   1287 ar
  1235   1286   1295 ar
  1236   1287   1288 ar
  1237   1288   1289 ar
  1238   1289   1290 ar
  1239   1289   1295 ar
  1240   1290   1291 1
  1241   1290   1292 ar
  1242   1292   1293 ar
  1243   1293   1294 ar
  1244   1294   1295 ar
  1245   1307   1308 1
  1246   1307   1309 1
  1247   1307   1310 1
  1248   1310   1311 1
  1249   1311   1312 1
  1250   1312   1313 1
  1251   1312   1314 1
  1252   1313   1317 1
  1253   1314   1315 1
  1254   1314   1316 1
  1255   1316   1317 1
  1256   1317   1318 1
  1257   1318   1319 am
  1258   1318   1326 1
  1259   1319   1320 2
  1260   1319   1321 am
  1261   1321   1322 am
  1262   1322   1323 2
  1263   1322   1324 1
  1264   1324   1325 1
  1265   1324   1326 2
  1266   1339   1340 1
  1267   1339   1341 1
  1268   1339   1342 1
  1269   1342   1343 1
  1270   1343   1344 1
  1271   1344   1345 1
  1272   1344   1346 1
  1273   1345   1349 1
  1274   1346   1347 1
  1275   1346   1348 1
  1276   1348   1349 1
  1277   1349   1350 1
  1278   1350   1351 am
  1279   1350   1358 1
  1280   1351   1352 2
  1281   1351   1353 am
  1282   1353   1354 am
  1283   1354   1355 2
  1284   1354   1356 1
  1285   1356   1357 1
  1286   1356   1358 2
  1287   1371   1372 1
  1288   1371   1373 1
  1289   1371   1374 1
  1290   1374   1375 1
  1291   1375   1376 1
  1292   1376   1377 1
  1293   1376   1378 1
  1294   1377   1381 1
  1295   1378   1379 1
  1296   1378   1380 1
  1297   1380   1381 1
  1298   1381   1382 1
  1299   1382   1383 am
  1300   1382   1389 1
  1301   1383   1384 2
  1302   1383   1385 1
  1303   1385   1386 2
  1304   1386   1387 2
  1305   1386   1388 2
  1306   1388   1389 2
  1307   1401   1402 1
  1308   1401   1403 1
  1309   1401   1404 1
  1310   1404   1405 1
  1311   1405   1406 1
  1312   1406   1407 1
  1313   1406   1408 1
  1314   1407   1411 1
  1315   1408   1409 1
  1316   1408   1410 1
  1317   1410   1411 1
  1318   1411   1412 1
  1319   1412   1413 ar
  1320   1412   1421 ar
  1321   1413   1414 ar
  1322   1414   1415 ar
  1323   1415   1416 ar
  1324   1415   1421 ar
  1325   1416   1417 1
  1326   1416   1418 ar
  1327   1418   1419 ar
  1328   1419   1420 ar
  1329   1420   1421 ar
  1330   1433   1434 1
  1331   1433   1435 1
  1332   1433   1436 1
  1333   1436   1437 1
  1334   1437   1438 1
  1335   1438   1439 1
  1336   1438   1440 1
  1337   1439   1443 1
  1338   1440   1441 1
  1339   1440   1442 1
  1340   1442   1443 1
  1341   1443   1444 1
  1342   1444   1445 am
  1343   1444   1451 1
  1344   1445   1446 2
  1345   1445   1447 1
  1346   1447   1448 2
  1347   1448   1449 2
  1348   1448   1450 2
  1349   1450   1451 2
  1350    849    831 1
  1351    850    831 1
  1352    851    832 1
  1353    852    834 1
  1354    853    836 1
  1355    854    836 1
  1356    855    837 1
  1357    856    839 1
  1358    857    844 1
  1359    880    864 1
  1360    881    864 1
  1361    882    865 1
  1362    883    867 1
  1363    884    869 1
  1364    885    869 1
  1365    886    870 1
  1366    887    874 1
  1367    888    879 1
  1368    914    896 1
  1369    915    896 1
  1370    916    897 1
  1371    917    899 1
  1372    918    901 1
  1373    919    901 1
  1374    920    902 1
  1375    921    904 1
  1376    922    909 1
  1377    946    929 1
  1378    947    929 1
  1379    948    930 1
  1380    949    932 1
  1381    950    934 1
  1382    951    934 1
  1383    952    935 1
  1384    953    937 1
  1385    954    943 1
  1386    978    961 1
  1387    979    961 1
  1388    980    962 1
  1389    981    964 1
  1390    982    966 1
  1391    983    966 1
  1392    984    967 1
  1393    985    969 1
  1394    986    975 1
  1395   1009    993 1
  1396   1010    993 1
  1397   1011    994 1
  1398   1012    996 1
  1399   1013    998 1
  1400   1014    998 1
  1401   1015    999 1
  1402   1016   1003 1
  1403   1017   1008 1
  1404   1041   1025 1
  1405   1042   1025 1
  1406   1043   1026 1
  1407   1044   1028 1
  1408   1045   1030 1
  1409   1046   1030 1
  1410   1047   1031 1
  1411   1048   1035 1
  1412   1049   1040 1
  1413   1072   1057 1
  1414   1073   1057 1
  1415   1074   1058 1
  1416   1075   1060 1
  1417   1076   1062 1
  1418   1077   1062 1
  1419   1078   1063 1
  1420   1079   1070 1
  1421   1080   1071 1
  1422   1104   1087 1
  1423   1105   1087 1
  1424   1106   1088 1
  1425   1107   1090 1
  1426   1108   1092 1
  1427   1109   1092 1
  1428   1110   1093 1
  1429   1111   1095 1
  1430   1112   1101 1
  1431   1134   1119 1
  1432   1135   1119 1
  1433   1136   1120 1
  1434   1137   1122 1
  1435   1138   1124 1
  1436   1139   1124 1
  1437   1140   1125 1
  1438   1141   1132 1
  1439   1142   1133 1
  1440   1167   1149 1
  1441   1168   1149 1
  1442   1169   1150 1
  1443   1170   1152 1
  1444   1171   1154 1
  1445   1172   1154 1
  1446   1173   1155 1
  1447   1174   1157 1
  1448   1175   1162 1
  1449   1198   1182 1
  1450   1199   1182 1
  1451   1200   1183 1
  1452   1201   1185 1
  1453   1202   1187 1
  1454   1203   1187 1
  1455   1204   1188 1
  1456   1205   1192 1
  1457   1206   1197 1
  1458   1232   1214 1
  1459   1233   1214 1
  1460   1234   1215 1
  1461   1235   1217 1
  1462   1236   1219 1
  1463   1237   1219 1
  1464   1238   1220 1
  1465   1239   1222 1
  1466   1240   1227 1
  1467   1264   1247 1
  1468   1265   1247 1
  1469   1266   1248 1
  1470   1267   1250 1
  1471   1268   1252 1
  1472   1269   1252 1
  1473   1270   1253 1
  1474   1271   1255 1
  1475   1272   1261 1
  1476   1296   1279 1
  1477   1297   1279 1
  1478   1298   1280 1
  1479   1299   1282 1
  1480   1300   1284 1
  1481   1301   1284 1
  1482   1302   1285 1
  1483   1303   1287 1
  1484   1304   1293 1
  1485   1327   1311 1
  1486   1328   1311 1
  1487   1329   1312 1
  1488   1330   1314 1
  1489   1331   1316 1
  1490   1332   1316 1
  1491   1333   1317 1
  1492   1334   1321 1
  1493   1335   1326 1
  1494   1359   1343 1
  1495   1360   1343 1
  1496   1361   1344 1
  1497   1362   1346 1
  1498   1363   1348 1
  1499   1364   1348 1
  1500   1365   1349 1
  1501   1366   1353 1
  1502   1367   1358 1
  1503   1390   1375 1
  1504   1391   1375 1
  1505   1392   1376 1
  1506   1393   1378 1
  1507   1394   1380 1
  1508   1395   1380 1
  1509   1396   1381 1
  1510   1397   1388 1
  1511   1398   1389 1
  1512   1422   1405 1
  1513   1423   1405 1
  1514   1424   1406 1
  1515   1425   1408 1
  1516   1426   1410 1
  1517   1427   1410 1
  1518   1428   1411 1
  1519   1429   1413 1
  1520   1430   1419 1
  1521   1452   1437 1
  1522   1453   1437 1
  1523   1454   1438 1
  1524   1455   1440 1
  1525   1456   1442 1
  1526   1457   1442 1
  1527   1458   1443 1
  1528   1459   1450 1
  1529   1460   1451 1
  1530    858    846 1
  1531    859    846 1
  1532    923    911 1
  1533    924    911 1
  1534   1081   1069 1
  1535   1082   1069 1
  1536   1143   1131 1
  1537   1144   1131 1
  1538   1176   1164 1
  1539   1177   1164 1
  1540   1241   1229 1
  1541   1242   1229 1
  1542   1399   1387 1
  1543   1400   1387 1
  1544   1461   1449 1
  1545   1462   1449 1
  1546    955    941 1
  1547    956    941 1
  1548    987    973 1
  1549    988    973 1
  1550   1113   1099 1
  1551   1114   1099 1
  1552   1273   1259 1
  1553   1274   1259 1
  1554   1305   1291 1
  1555   1306   1291 1
  1556   1431   1417 1
  1557   1432   1417 1
  1558    889    878 1
  1559    890    878 1
  1560    891    878 1
  1561   1018   1007 1
  1562   1019   1007 1
  1563   1020   1007 1
  1564   1050   1039 1
  1565   1051   1039 1
  1566   1052   1039 1
  1567   1207   1196 1
  1568   1208   1196 1
  1569   1209   1196 1
  1570   1336   1325 1
  1571   1337   1325 1
  1572   1338   1325 1
  1573   1368   1357 1
  1574   1369   1357 1
  1575   1370   1357 1
  1576   1123   1463 1
  1577   1145   2077 1
  1578   1471   1496 1
  1579   1504   1528 1
  1580   1536   1561 1
  1581   1569   1593 1
  1582   1601   1625 1
  1583   1633   1657 1
  1584   1665   1689 1
  1585   1697   1719 1
  1586   1727   1751 1
  1587   1789   1814 1
  1588   1822   1846 1
  1589   1854   1879 1
  1590   1887   1911 1
  1591   1919   1943 1
  1592   1951   1975 1
  1593   1983   2007 1
  1594   2015   2037 1
  1595   2045   2069 1
  1596   1463   1464 1
  1597   1463   1465 1
  1598   1463   1466 1
  1599   1466   1467 1
  1600   1467   1468 1
  1601   1468   1469 1
  1602   1468   1470 1
  1603   1469   1473 1
  1604   1470   1471 1
  1605   1470   1472 1
  1606   1472   1473 1
  1607   1473   1474 1
  1608   1474   1475 ar
  1609   1474   1484 ar
  1610   1475   1476 ar
  1611   1476   1477 ar
  1612   1477   1478 1
  1613   1477   1484 ar
  1614   1478   1479 2
  1615   1478   1480 am
  1616   1480   1481 1
  1617   1481   1482 2
  1618   1481   1483 2
  1619   1483   1484 1
  1620   1496   1497 1
  1621   1496   1498 1
  1622   1496   1499 1
  1623   1499   1500 1
  1624   1500   1501 1
  1625   1501   1502 1
  1626   1501   1503 1
  1627   1502   1506 1
  1628   1503   1504 1
  1629   1503   1505 1
  1630   1505   1506 1
  1631   1506   1507 1
  1632   1507   1508 am
  1633   1507   1515 1
  1634   1508   1509 2
  1635   1508   1510 am
  1636   1510   1511 am
  1637   1511   1512 2
  1638   1511   1513 1
  1639   1513   1514 1
  1640   1513   1515 2
  1641   1528   1529 1
  1642   1528   1530 1
  1643   1528   1531 1
  1644   1531   1532 1
  1645   1532   1533 1
  1646   1533   1534 1
  1647   1533   1535 1
  1648   1534   1538 1
  1649   1535   1536 1
  1650   1535   1537 1
  1651   1537   1538 1
  1652   1538   1539 1
  1653   1539   1540 ar
  1654   1539   1549 ar
  1655   1540   1541 ar
  1656   1541   1542 ar
  1657   1542   1543 1
  1658   1542   1549 ar
  1659   1543   1544 2
  1660   1543   1545 am
  1661   1545   1546 1
  1662   1546   1547 2
  1663   1546   1548 2
  1664   1548   1549 1
  1665   1561   1562 1
  1666   1561   1563 1
  1667   1561   1564 1
  1668   1564   1565 1
  1669   1565   1566 1
  1670   1566   1567 1
  1671   1566   1568 1
  1672   1567   1571 1
  1673   1568   1569 1
  1674   1568   1570 1
  1675   1570   1571 1
  1676   1571   1572 1
  1677   1572   1573 ar
  1678   1572   1581 ar
  1679   1573   1574 ar
  1680   1574   1575 ar
  1681   1575   1576 ar
  1682   1575   1581 ar
  1683   1576   1577 1
  1684   1576   1578 ar
  1685   1578   1579 ar
  1686   1579   1580 ar
  1687   1580   1581 ar
  1688   1593   1594 1
  1689   1593   1595 1
  1690   1593   1596 1
  1691   1596   1597 1
  1692   1597   1598 1
  1693   1598   1599 1
  1694   1598   1600 1
  1695   1599   1603 1
  1696   1600   1601 1
  1697   1600   1602 1
  1698   1602   1603 1
  1699   1603   1604 1
  1700   1604   1605 ar
  1701   1604   1613 ar
  1702   1605   1606 ar
  1703   1606   1607 ar
  1704   1607   1608 ar
  1705   1607   1613 ar
  1706   1608   1609 1
  1707   1608   1610 ar
  1708   1610   1611 ar
  1709   1611   1612 ar
  1710   1612   1613 ar
  1711   1625   1626 1
  1712   1625   1627 1
  1713   1625   1628 1
  1714   1628   1629 1
  1715   1629   1630 1
  1716   1630   1631 1
  1717   1630   1632 1
  1718   1631   1635 1
  1719   1632   1633 1
  1720   1632   1634 1
  1721   1634   1635 1
  1722   1635   1636 1
  1723   1636   1637 am
  1724   1636   1644 1
  1725   1637   1638 2
  1726   1637   1639 am
  1727   1639   1640 am
  1728   1640   1641 2
  1729   1640   1642 1
  1730   1642   1643 1
  1731   1642   1644 2
  1732   1657   1658 1
  1733   1657   1659 1
  1734   1657   1660 1
  1735   1660   1661 1
  1736   1661   1662 1
  1737   1662   1663 1
  1738   1662   1664 1
  1739   1663   1667 1
  1740   1664   1665 1
  1741   1664   1666 1
  1742   1666   1667 1
  1743   1667   1668 1
  1744   1668   1669 am
  1745   1668   1676 1
  1746   1669   1670 2
  1747   1669   1671 am
  1748   1671   1672 am
  1749   1672   1673 2
  1750   1672   1674 1
  1751   1674   1675 1
  1752   1674   1676 2
  1753   1689   1690 1
  1754   1689   1691 1
  1755   1689   1692 1
  1756   1692   1693 1
  1757   1693   1694 1
  1758   1694   1695 1
  1759   1694   1696 1
  1760   1695   1699 1
  1761   1696   1697 1
  1762   1696   1698 1
  1763   1698   1699 1
  1764   1699   1700 1
  1765   1700   1701 am
  1766   1700   1707 1
  1767   1701   1702 2
  1768   1701   1703 1
  1769   1703   1704 2
  1770   1704   1705 2
  1771   1704   1706 2
  1772   1706   1707 2
  1773   1719   1720 1
  1774   1719   1721 1
  1775   1719   1722 1
  1776   1722   1723 1
  1777   1723   1724 1
  1778   1724   1725 1
  1779   1724   1726 1
  1780   1725   1729 1
  1781   1726   1727 1
  1782   1726   1728 1
  1783   1728   1729 1
  1784   1729   1730 1
  1785   1730   1731 ar
  1786   1730   1739 ar
  1787   1731   1732 ar
  1788   1732   1733 ar
  1789   1733   1734 ar
  1790   1733   1739 ar
  1791   1734   1735 1
  1792   1734   1736 ar
  1793   1736   1737 ar
  1794   1737   1738 ar
  1795   1738   1739 ar
  1796   1751   1752 1
  1797   1751   1753 1
  1798   1751   1754 1
  1799   1754   1755 1
  1800   1755   1756 1
  1801   1756   1757 1
  1802   1756   1758 1
  1803   1757   1761 1
  1804   1758   1759 1
  1805   1758   1760 1
  1806   1760   1761 1
  1807   1761   1762 1
  1808   1762   1763 am
  1809   1762   1769 1
  1810   1763   1764 2
  1811   1763   1765 1
  1812   1765   1766 2
  1813   1766   1767 2
  1814   1766   1768 2
  1815   1768   1769 2
  1816   1781   1782 1
  1817   1781   1783 1
  1818   1781   1784 1
  1819   1784   1785 1
  1820   1785   1786 1
  1821   1786   1787 1
  1822   1786   1788 1
  1823   1787   1791 1
  1824   1788   1789 1
  1825   1788   1790 1
  1826   1790   1791 1
  1827   1791   1792 1
  1828   1792   1793 ar
  1829   1792   1802 ar
  1830   1793   1794 ar
  1831   1794   1795 ar
  1832   1795   1796 1
  1833   1795   1802 ar
  1834   1796   1797 2
  1835   1796   1798 am
  1836   1798   1799 1
  1837   1799   1800 2
  1838   1799   1801 2
  1839   1801   1802 1
  1840   1814   1815 1
  1841   1814   1816 1
  1842   1814   1817 1
  1843   1817   1818 1
  1844   1818   1819 1
  1845   1819   1820 1
  1846   1819   1821 1
  1847   1820   1824 1
  1848   1821   1822 1
  1849   1821   1823 1
  1850   1823   1824 1
  1851   1824   1825 1
  1852   1825   1826 am
  1853   1825   1833 1
  1854   1826   1827 2
  1855   1826   1828 am
  1856   1828   1829 am
  1857   1829   1830 2
  1858   1829   1831 1
  1859   1831   1832 1
  1860   1831   1833 2
  1861   1846   1847 1
  1862   1846   1848 1
  1863   1846   1849 1
  1864   1849   1850 1
  1865   1850   1851 1
  1866   1851   1852 1
  1867   1851   1853 1
  1868   1852   1856 1
  1869   1853   1854 1
  1870   1853   1855 1
  1871   1855   1856 1
  1872   1856   1857 1
  1873   1857   1858 ar
  1874   1857   1867 ar
  1875   1858   1859 ar
  1876   1859   1860 ar
  1877   1860   1861 1
  1878   1860   1867 ar
  1879   1861   1862 2
  1880   1861   1863 am
  1881   1863   1864 1
  1882   1864   1865 2
  1883   1864   1866 2
  1884   1866   1867 1
  1885   1879   1880 1
  1886   1879   1881 1
  1887   1879   1882 1
  1888   1882   1883 1
  1889   1883   1884 1
  1890   1884   1885 1
  1891   1884   1886 1
  1892   1885   1889 1
  1893   1886   1887 1
  1894   1886   1888 1
  1895   1888   1889 1
  1896   1889   1890 1
  1897   1890   1891 ar
  1898   1890   1899 ar
  1899   1891   1892 ar
  1900   1892   1893 ar
  1901   1893   1894 ar
  1902   1893   1899 ar
  1903   1894   1895 1
  1904   1894   1896 ar
  1905   1896   1897 ar
  1906   1897   1898 ar
  1907   1898   1899 ar
  1908   1911   1912 1
  1909   1911   1913 1
  1910   1911   1914 1
  1911   1914   1915 1
  1912   1915   1916 1
  1913   1916   1917 1
  1914   1916   1918 1
  1915   1917   1921 1
  1916   1918   1919 1
  1917   1918   1920 1
  1918   1920   1921 1
  1919   1921   1922 1
  1920   1922   1923 ar
  1921   1922   1931 ar
  1922   1923   1924 ar
  1923   1924   1925 ar
  1924   1925   1926 ar
  1925   1925   1931 ar
  1926   1926   1927 1
  1927   1926   1928 ar
  1928   1928   1929 ar
  1929   1929   1930 ar
  1930   1930   1931 ar
  1931   1943   1944 1
  1932   1943   1945 1
  1933   1943   1946 1
  1934   1946   1947 1
  1935   1947   1948 1
  1936   1948   1949 1
  1937   1948   1950 1
  1938   1949   1953 1
  1939   1950   1951 1
  1940   1950   1952 1
  1941   1952   1953 1
  1942   1953   1954 1
  1943   1954   1955 am
  1944   1954   1962 1
  1945   1955   1956 2
  1946   1955   1957 am
  1947   1957   1958 am
  1948   1958   1959 2
  1949   1958   1960 1
  1950   1960   1961 1
  1951   1960   1962 2
  1952   1975   1976 1
  1953   1975   1977 1
  1954   1975   1978 1
  1955   1978   1979 1
  1956   1979   1980 1
  1957   1980   1981 1
  1958   1980   1982 1
  1959   1981   1985 1
  1960   1982   1983 1
  1961   1982   1984 1
  1962   1984   1985 1
  1963   1985   1986 1
  1964   1986   1987 am
  1965   1986   1994 1
  1966   1987   1988 2
  1967   1987   1989 am
  1968   1989   1990 am
  1969   1990   1991 2
  1970   1990   1992 1
  1971   1992   1993 1
  1972   1992   1994 2
  1973   2007   2008 1
  1974   2007   2009 1
  1975   2007   2010 1
  1976   2010   2011 1
  1977   2011   2012 1
  1978   2012   2013 1
  1979   2012   2014 1
  1980   2013   2017 1
  1981   2014   2015 1
  1982   2014   2016 1
  1983   2016   2017 1
  1984   2017   2018 1
  1985   2018   2019 am
  1986   2018   2025 1
  1987   2019   2020 2
  1988   2019   2021 1
  1989   2021   2022 2
  1990   2022   2023 2
  1991   2022   2024 2
  1992   2024   2025 2
  1993   2037   2038 1
  1994   2037   2039 1
  1995   2037   2040 1
  1996   2040   2041 1
  1997   2041   2042 1
  1998   2042   2043 1
  1999   2042   2044 1
  2000   2043   2047 1
  2001   2044   2045 1
  2002   2044   2046 1
  2003   2046   2047 1
  2004   2047   2048 1
  2005   2048   2049 ar
  2006   2048   2057 ar
  2007   2049   2050 ar
  2008   2050   2051 ar
  2009   2051   2052 ar
  2010   2051   2057 ar
  2011   2052   2053 1
  2012   2052   2054 ar
  2013   2054   2055 ar
  2014   2055   2056 ar
  2015   2056   2057 ar
  2016   2069   2070 1
  2017   2069   2071 1
  2018   2069   2072 1
  2019   2072   2073 1
  2020   2073   2074 1
  2021   2074   2075 1
  2022   2074   2076 1
  2023   2075   2079 1
  2024   2076   2077 1
  2025   2076   2078 1
  2026   2078   2079 1
  2027   2079   2080 1
  2028   2080   2081 am
  2029   2080   2087 1
  2030   2081   2082 2
  2031   2081   2083 1
  2032   2083   2084 2
  2033   2084   2085 2
  2034   2084   2086 2
  2035   2086   2087 2
  2036   1485   1467 1
  2037   1486   1467 1
  2038   1487   1468 1
  2039   1488   1470 1
  2040   1489   1472 1
  2041   1490   1472 1
  2042   1491   1473 1
  2043   1492   1475 1
  2044   1493   1480 1
  2045   1516   1500 1
  2046   1517   1500 1
  2047   1518   1501 1
  2048   1519   1503 1
  2049   1520   1505 1
  2050   1521   1505 1
  2051   1522   1506 1
  2052   1523   1510 1
  2053   1524   1515 1
  2054   1550   1532 1
  2055   1551   1532 1
  2056   1552   1533 1
  2057   1553   1535 1
  2058   1554   1537 1
  2059   1555   1537 1
  2060   1556   1538 1
  2061   1557   1540 1
  2062   1558   1545 1
  2063   1582   1565 1
  2064   1583   1565 1
  2065   1584   1566 1
  2066   1585   1568 1
  2067   1586   1570 1
  2068   1587   1570 1
  2069   1588   1571 1
  2070   1589   1573 1
  2071   1590   1579 1
  2072   1614   1597 1
  2073   1615   1597 1
  2074   1616   1598 1
  2075   1617   1600 1
  2076   1618   1602 1
  2077   1619   1602 1
  2078   1620   1603 1
  2079   1621   1605 1
  2080   1622   1611 1
  2081   1645   1629 1
  2082   1646   1629 1
  2083   1647   1630 1
  2084   1648   1632 1
  2085   1649   1634 1
  2086   1650   1634 1
  2087   1651   1635 1
  2088   1652   1639 1
  2089   1653   1644 1
  2090   1677   1661 1
  2091   1678   1661 1
  2092   1679   1662 1
  2093   1680   1664 1
  2094   1681   1666 1
  2095   1682   1666 1
  2096   1683   1667 1
  2097   1684   1671 1
  2098   1685   1676 1
  2099   1708   1693 1
  2100   1709   1693 1
  2101   1710   1694 1
  2102   1711   1696 1
  2103   1712   1698 1
  2104   1713   1698 1
  2105   1714   1699 1
  2106   1715   1706 1
  2107   1716   1707 1
  2108   1740   1723 1
  2109   1741   1723 1
  2110   1742   1724 1
  2111   1743   1726 1
  2112   1744   1728 1
  2113   1745   1728 1
  2114   1746   1729 1
  2115   1747   1731 1
  2116   1748   1737 1
  2117   1770   1755 1
  2118   1771   1755 1
  2119   1772   1756 1
  2120   1773   1758 1
  2121   1774   1760 1
  2122   1775   1760 1
  2123   1776   1761 1
  2124   1777   1768 1
  2125   1778   1769 1
  2126   1803   1785 1
  2127   1804   1785 1
  2128   1805   1786 1
  2129   1806   1788 1
  2130   1807   1790 1
  2131   1808   1790 1
  2132   1809   1791 1
  2133   1810   1793 1
  2134   1811   1798 1
  2135   1834   1818 1
  2136   1835   1818 1
  2137   1836   1819 1
  2138   1837   1821 1
  2139   1838   1823 1
  2140   1839   1823 1
  2141   1840   1824 1
  2142   1841   1828 1
  2143   1842   1833 1
  2144   1868   1850 1
  2145   1869   1850 1
  2146   1870   1851 1
  2147   1871   1853 1
  2148   1872   1855 1
  2149   1873   1855 1
  2150   1874   1856 1
  2151   1875   1858 1
  2152   1876   1863 1
  2153   1900   1883 1
  2154   1901   1883 1
  2155   1902   1884 1
  2156   1903   1886 1
  2157   1904   1888 1
  2158   1905   1888 1
  2159   1906   1889 1
  2160   1907   1891 1
  2161   1908   1897 1
  2162   1932   1915 1
  2163   1933   1915 1
  2164   1934   1916 1
  2165   1935   1918 1
  2166   1936   1920 1
  2167   1937   1920 1
  2168   1938   1921 1
  2169   1939   1923 1
  2170   1940   1929 1
  2171   1963   1947 1
  2172   1964   1947 1
  2173   1965   1948 1
  2174   1966   1950 1
  2175   1967   1952 1
  2176   1968   1952 1
  2177   1969   1953 1
  2178   1970   1957 1
  2179   1971   1962 1
  2180   1995   1979 1
  2181   1996   1979 1
  2182   1997   1980 1
  2183   1998   1982 1
  2184   1999   1984 1
  2185   2000   1984 1
  2186   2001   1985 1
  2187   2002   1989 1
  2188   2003   1994 1
  2189   2026   2011 1
  2190   2027   2011 1
  2191   2028   2012 1
  2192   2029   2014 1
  2193   2030   2016 1
  2194   2031   2016 1
  2195   2032   2017 1
  2196   2033   2024 1
  2197   2034   2025 1
  2198   2058   2041 1
  2199   2059   2041 1
  2200   2060   2042 1
  2201   2061   2044 1
  2202   2062   2046 1
  2203   2063   2046 1
  2204   2064   2047 1
  2205   2065   2049 1
  2206   2066   2055 1
  2207   2088   2073 1
  2208   2089   2073 1
  2209   2090   2074 1
  2210   2091   2076 1
  2211   2092   2078 1
  2212   2093   2078 1
  2213   2094   2079 1
  2214   2095   2086 1
  2215   2096   2087 1
  2216   1494   1482 1
  2217   1495   1482 1
  2218   1559   1547 1
  2219   1560   1547 1
  2220   1717   1705 1
  2221   1718   1705 1
  2222   1779   1767 1
  2223   1780   1767 1
  2224   1812   1800 1
  2225   1813   1800 1
  2226   1877   1865 1
  2227   1878   1865 1
  2228   2035   2023 1
  2229   2036   2023 1
  2230   2097   2085 1
  2231   2098   2085 1
  2232   1591   1577 1
  2233   1592   1577 1
  2234   1623   1609 1
  2235   1624   1609 1
  2236   1749   1735 1
  2237   1750   1735 1
  2238   1909   1895 1
  2239   1910   1895 1
  2240   1941   1927 1
  2241   1942   1927 1
  2242   2067   2053 1
  2243   2068   2053 1
  2244   1525   1514 1
  2245   1526   1514 1
  2246   1527   1514 1
  2247   1654   1643 1
  2248   1655   1643 1
  2249   1656   1643 1
  2250   1686   1675 1
  2251   1687   1675 1
  2252   1688   1675 1
  2253   1843   1832 1
  2254   1844   1832 1
  2255   1845   1832 1
  2256   1972   1961 1
  2257   1973   1961 1
  2258   1974   1961 1
  2259   2004   1993 1
  2260   2005   1993 1
  2261   2006   1993 1
