@<TRIPOS>MOLECULE
etaani-imiini (ETAANIIMIINI)
8 7 1 0 0
SMALL
NO_CHARGES


@<TRIPOS>ATOM
      1 C1          -0.8819     0.3119     0.3530 C.3        1 ETAA      0.0000
      2 C2           0.3943    -0.3386    -0.0740 C.2        1 ETAA      0.0000
      3 N1           1.4696     0.3490    -0.2586 N.2        1 ETAA      0.0000
      4 H1          -0.7516     1.3902     0.4716 H          1 ETAA      0.0000
      5 H2          -1.2024    -0.1266     1.3014 H          1 ETAA      0.0000
      6 H3          -1.6488     0.1146    -0.4004 H          1 ETAA      0.0000
      7 H4           0.3843    -1.4309    -0.2262 H          1 ETAA      0.0000
      8 H5           2.2364    -0.2696    -0.5474 H          1 ETAA      0.0000
@<TRIPOS>BOND
     1     1     2 1
     2     2     3 2
     3     1     4 1
     4     1     5 1
     5     1     6 1
     6     2     7 1
     7     3     8 1
