@<TRIPOS>MOLECULE
etaani (ETAANI)
8 7 1 0 0
SMALL
NO_CHARGES


@<TRIPOS>ATOM
      1 C1          -0.7558     0.0071    -0.0165 C.3        1 ETAA      0.0000
      2 C2           0.7558    -0.0071     0.0165 C.3        1 ETAA      0.0000
      3 H1          -1.1634    -0.1004     0.9931 H          1 ETAA      0.0000
      4 H2          -1.1223     0.9481    -0.4375 H          1 ETAA      0.0000
      5 H3          -1.1346    -0.8156    -0.6303 H          1 ETAA      0.0000
      6 H4           1.1346     0.8156     0.6303 H          1 ETAA      0.0000
      7 H5           1.1634     0.1004    -0.9931 H          1 ETAA      0.0000
      8 H6           1.1223    -0.9481     0.4375 H          1 ETAA      0.0000
@<TRIPOS>BOND
     1     1     2 1
     2     1     3 1
     3     1     4 1
     4     1     5 1
     5     2     6 1
     6     2     7 1
     7     2     8 1
