@<TRIPOS>MOLECULE
etanoliamiini (ETANOLIAMIINI)
11 10 1 0 0
SMALL
NO_CHARGES


@<TRIPOS>ATOM
      1 N1           1.6776    -0.2915     0.1256 N.3        1 ETAN      0.0000
      2 C1           0.3537    -0.3384    -0.4881 C.3        1 ETAN      0.0000
      3 C2          -0.6977     0.4660     0.2843 C.3        1 ETAN      0.0000
      4 O1          -1.9653     0.3826    -0.3559 O.3        1 ETAN      0.0000
      5 H1           2.0043     0.6743     0.1580 H          1 ETAN      0.0000
      6 H2           1.6245    -0.6044     1.0942 H          1 ETAN      0.0000
      7 H3           0.4159     0.0321    -1.5177 H          1 ETAN      0.0000
      8 H4           0.0305    -1.3827    -0.5656 H          1 ETAN      0.0000
      9 H5          -0.8049     0.0947     1.3090 H          1 ETAN      0.0000
     10 H6          -0.4155     1.5227     0.3331 H          1 ETAN      0.0000
     11 H7          -2.2229    -0.5552    -0.3769 H          1 ETAN      0.0000
@<TRIPOS>BOND
     1     1     2 1
     2     2     3 1
     3     3     4 1
     4     1     5 1
     5     1     6 1
     6     2     7 1
     7     2     8 1
     8     3     9 1
     9     3    10 1
    10     4    11 1
