@<TRIPOS>MOLECULE
etanoli (ETANOLI)
9 8 1 0 0
SMALL
NO_CHARGES


@<TRIPOS>ATOM
      1 C1          -0.8792     0.2092     0.0312 C.3        1 ETAN      0.0000
      2 C2           0.4397    -0.5083    -0.1683 C.3        1 ETAN      0.0000
      3 O1           1.4498     0.1053     0.6191 O.3        1 ETAN      0.0000
      4 H1          -1.6721    -0.2619    -0.5564 H          1 ETAN      0.0000
      5 H2          -0.7972     1.2598    -0.2662 H          1 ETAN      0.0000
      6 H3          -1.1674     0.1990     1.0875 H          1 ETAN      0.0000
      7 H4           0.3564    -1.5548     0.1388 H          1 ETAN      0.0000
      8 H5           0.7471    -0.4800    -1.2181 H          1 ETAN      0.0000
      9 H6           1.5229     1.0316     0.3323 H          1 ETAN      0.0000
@<TRIPOS>BOND
     1     1     2 1
     2     2     3 1
     3     1     4 1
     4     1     5 1
     5     1     6 1
     6     2     7 1
     7     2     8 1
     8     3     9 1
