@<TRIPOS>MOLECULE
etenoli (ETENOLI)
7 6 1 0 0
SMALL
NO_CHARGES


@<TRIPOS>ATOM
      1 C1          -0.9627     0.2760     0.2877 C.2        1 ETEN      0.0000
      2 C2           0.1765    -0.1215    -0.2749 C.2        1 ETEN      0.0000
      3 O1           1.3541    -0.1266     0.4147 O.2        1 ETEN      0.0000
      4 H1          -0.9837     0.6096     1.3200 H          1 ETEN      0.0000
      5 H2          -1.8927     0.2761    -0.2690 H          1 ETEN      0.0000
      6 H3           0.2547    -0.4634    -1.2989 H          1 ETEN      0.0000
      7 H4           2.0538    -0.4502    -0.1797 H          1 ETEN      0.0000
@<TRIPOS>BOND
     1     1     2 2
     2     2     3 1
     3     1     4 1
     4     1     5 1
     5     2     6 1
     6     3     7 1
