@<TRIPOS>MOLECULE
etikkahappoanhydridi (ETIKKAHAPPOANHYDRIDI)
13 12 1 0 0
SMALL
NO_CHARGES


@<TRIPOS>ATOM
      1 C1           2.2939    -0.4254    -0.2127 C.3        1 ETIK      0.0000
      2 C2           1.1682     0.5548    -0.0455 C.2        1 ETIK      0.0000
      3 O1           1.3484     1.7593     0.0386 O.2        1 ETIK      0.0000
      4 O2          -0.0024    -0.1329    -0.0106 O.2        1 ETIK      0.0000
      5 C3          -1.1474     0.5825     0.1365 C.2        1 ETIK      0.0000
      6 O3          -1.2837     1.7908     0.2454 O.2        1 ETIK      0.0000
      7 C4          -2.3084    -0.3704     0.1490 C.3        1 ETIK      0.0000
      8 H1           3.2447     0.1146    -0.2425 H          1 ETIK      0.0000
      9 H2           2.3135    -1.1161     0.6342 H          1 ETIK      0.0000
     10 H3           2.1748    -0.9707    -1.1525 H          1 ETIK      0.0000
     11 H4          -3.2391     0.1921     0.2670 H          1 ETIK      0.0000
     12 H5          -2.2119    -1.0620     0.9899 H          1 ETIK      0.0000
     13 H6          -2.3506    -0.9166    -0.7968 H          1 ETIK      0.0000
@<TRIPOS>BOND
     1     1     2 1
     2     2     3 2
     3     2     4 1
     4     4     5 1
     5     5     6 2
     6     5     7 1
     7     1     8 1
     8     1     9 1
     9     1    10 1
    10     7    11 1
    11     7    12 1
    12     7    13 1
