@<TRIPOS>MOLECULE
etikkahappo (ETIKKAHAPPO)
8 7 1 0 0
SMALL
NO_CHARGES


@<TRIPOS>ATOM
      1 C1          -0.9515    -0.1268     0.0821 C.3        1 ETIK      0.0000
      2 C2           0.4602     0.2841    -0.1766 C.2        1 ETIK      0.0000
      3 O1           0.8282     1.2734    -0.7858 O.2        1 ETIK      0.0000
      4 O2           1.3502    -0.5777     0.3489 O.2        1 ETIK      0.0000
      5 H1          -1.1427    -1.1019    -0.3726 H          1 ETIK      0.0000
      6 H2          -1.1360    -0.1615     1.1586 H          1 ETIK      0.0000
      7 H3          -1.6291     0.6061    -0.3650 H          1 ETIK      0.0000
      8 H4           2.2208    -0.1957     0.1104 H          1 ETIK      0.0000
@<TRIPOS>BOND
     1     1     2 1
     2     2     3 2
     3     2     4 1
     4     1     5 1
     5     1     6 1
     6     1     7 1
     7     4     8 1
