@<TRIPOS>MOLECULE
etyyliasetaatti (ETYYLIASETAATTI)
14 13 1 0 0
SMALL
NO_CHARGES


@<TRIPOS>ATOM
      1 C1          -2.4460     0.0454     0.2142 C.3        1 ETYY      0.0000
      2 C2          -1.1726    -0.6485    -0.1609 C.2        1 ETYY      0.0000
      3 O1          -1.0920    -1.8307    -0.4626 O.2        1 ETYY      0.0000
      4 O2          -0.1333     0.2292    -0.1143 O.2        1 ETYY      0.0000
      5 C3           1.1335    -0.3443    -0.4589 C.3        1 ETYY      0.0000
      6 C4           2.1869     0.7421    -0.3638 C.3        1 ETYY      0.0000
      7 H1          -2.6493     0.8544    -0.4919 H          1 ETYY      0.0000
      8 H2          -3.2735    -0.6688     0.1734 H          1 ETYY      0.0000
      9 H3          -2.3707     0.4331     1.2332 H          1 ETYY      0.0000
     10 H4           1.3742    -1.1550     0.2379 H          1 ETYY      0.0000
     11 H5           1.0965    -0.7350    -1.4820 H          1 ETYY      0.0000
     12 H6           3.1755     0.3504    -0.6190 H          1 ETYY      0.0000
     13 H7           1.9491     1.5700    -1.0398 H          1 ETYY      0.0000
     14 H8           2.2217     1.1577     0.6487 H          1 ETYY      0.0000
@<TRIPOS>BOND
     1     1     2 1
     2     2     3 2
     3     2     4 1
     4     4     5 1
     5     5     6 1
     6     1     7 1
     7     1     8 1
     8     1     9 1
     9     5    10 1
    10     5    11 1
    11     6    12 1
    12     6    13 1
    13     6    14 1
