@<TRIPOS>MOLECULE
Fe₂S₂-klusteri (FE2S2)
4 4 1 0 0
SMALL
NO_CHARGES


@<TRIPOS>ATOM
      1 Fe1         73.0400   100.4280    84.8740 Fe         1 FE2S      0.0000
      2 Fe2         72.4610   101.6170    87.2380 Fe         1 FE2S      0.0000
      3 S1          71.2000   100.2370    86.0660 S.3        1 FE2S      0.0000
      4 S2          74.2760   101.8580    86.0020 S.3        1 FE2S      0.0000
@<TRIPOS>BOND
     1     1     3 1
     2     1     4 1
     3     2     3 1
     4     2     4 1
