@<TRIPOS>MOLECULE
Fe₄S₄-klusteri (FE4S4)
8 12 1 0 0
SMALL
NO_CHARGES


@<TRIPOS>ATOM
      1 Fe1         52.9569   -32.0222   -34.6059 Fe         1 FE4S      0.0000
      2 Fe2         51.2113   -30.0677   -33.8564 Fe         1 FE4S      0.0000
      3 Fe3         50.7377   -31.5178   -36.1256 Fe         1 FE4S      0.0000
      4 Fe4         52.7853   -29.7131   -36.0586 Fe         1 FE4S      0.0000
      5 S1          50.5545   -29.2503   -35.8849 S.3        1 FE4S      0.0000
      6 S2          52.8705   -31.8439   -36.8841 S.3        1 FE4S      0.0000
      7 S3          53.4871   -29.9137   -33.8892 S.3        1 FE4S      0.0000
      8 S4          50.7757   -32.3063   -33.9752 S.3        1 FE4S      0.0000
@<TRIPOS>BOND
     1     1     6 1
     2     1     7 1
     3     1     8 1
     4     2     5 1
     5     2     7 1
     6     2     8 1
     7     3     5 1
     8     3     6 1
     9     3     8 1
    10     4     5 1
    11     4     6 1
    12     4     7 1
