@<TRIPOS>MOLECULE
fenyylialaniini (FENYYLIALANIINI)
23 23 1 0 0
SMALL
NO_CHARGES


@<TRIPOS>ATOM
      1 N1          -3.0281    -1.0956    -0.0723 N.3        1 FENY      0.0000
      2 C1          -1.7662    -0.3289    -0.2724 C.3        1 FENY      0.0000
      3 C2          -0.6230    -1.0033     0.4994 C.3        1 FENY      0.0000
      4 C3           0.7447    -0.4957     0.1049 C.ar       1 FENY      0.0000
      5 C4           1.4213     0.4341     0.9053 C.ar       1 FENY      0.0000
      6 C5           2.6790     0.9077     0.5283 C.ar       1 FENY      0.0000
      7 C6           3.2716     0.4572    -0.6498 C.ar       1 FENY      0.0000
      8 C7           2.6073    -0.4674    -1.4529 C.ar       1 FENY      0.0000
      9 C8           1.3494    -0.9417    -1.0787 C.ar       1 FENY      0.0000
     10 C9          -1.9538     1.1151     0.2082 C.2        1 FENY      0.0000
     11 O1          -1.4617     2.1206    -0.2758 O.2        1 FENY      0.0000
     12 O2          -2.7569     1.2134     1.2946 O.2        1 FENY      0.0000
     13 H1          -3.3142    -0.9524     0.9012 H          1 FENY      0.0000
     14 H2          -3.7629    -0.6482    -0.6217 H          1 FENY      0.0000
     15 H3          -1.5667    -0.3041    -1.3495 H          1 FENY      0.0000
     16 H4          -0.7614    -0.8779     1.5818 H          1 FENY      0.0000
     17 H5          -0.6383    -2.0877     0.3229 H          1 FENY      0.0000
     18 H6           0.9741     0.8004     1.8263 H          1 FENY      0.0000
     19 H7           3.1957     1.6315     1.1531 H          1 FENY      0.0000
     20 H8           4.2500     0.8283    -0.9427 H          1 FENY      0.0000
     21 H9           3.0684    -0.8185    -2.3723 H          1 FENY      0.0000
     22 H10          0.8438    -1.6640    -1.7163 H          1 FENY      0.0000
     23 H11         -2.7720     2.1769     1.4784 H          1 FENY      0.0000
@<TRIPOS>BOND
     1     1     2 1
     2     2     3 1
     3     3     4 1
     4     4     5 ar
     5     5     6 ar
     6     6     7 ar
     7     7     8 ar
     8     8     9 ar
     9     2    10 1
    10    10    11 2
    11    10    12 1
    12     9     4 ar
    13     1    13 1
    14     1    14 1
    15     2    15 1
    16     3    16 1
    17     3    17 1
    18     5    18 1
    19     6    19 1
    20     7    20 1
    21     8    21 1
    22     9    22 1
    23    12    23 1
