@<TRIPOS>MOLECULE
feofytiini a (FEOFYTIINI)
138 143 1 0 0
SMALL
NO_CHARGES


@<TRIPOS>ATOM
      1 C1         -12.0923     1.2552     2.8329 C.3        1 FEOF      0.0000
      2 C2         -12.3342     1.1074     1.3373 C.3        1 FEOF      0.0000
      3 C3         -11.2276     0.3640     0.6532 C.2        1 FEOF      0.0000
      4 C4         -11.2050    -0.9484     0.3650 C.2        1 FEOF      0.0000
      5 C5          -9.8901    -1.0899    -0.2925 C.2        1 FEOF      0.0000
      6 N1          -9.2341     0.0206    -0.4005 N.2        1 FEOF      0.0000
      7 C6          -9.9847     0.9863     0.2202 C.2        1 FEOF      0.0000
      8 C7          -9.5928     2.2604     0.4031 C.2        1 FEOF      0.0000
      9 C8          -8.2855     2.8079     0.0948 C.2        1 FEOF      0.0000
     10 C9          -7.9240     4.1143     0.0238 C.2        1 FEOF      0.0000
     11 C10         -6.5149     4.0706    -0.1778 C.2        1 FEOF      0.0000
     12 C11         -5.3797     4.7493    -0.3202 C.2        1 FEOF      0.0000
     13 C12         -4.1707     3.8357    -0.4488 C.3        1 FEOF      0.0000
     14 C13         -4.7441     2.4380    -0.3694 C.2        1 FEOF      0.0000
     15 C14         -4.2206     1.2040    -0.4439 C.2        1 FEOF      0.0000
     16 C15         -2.7378     0.8595    -0.5907 C.3        1 FEOF      0.0000
     17 C16         -2.7321    -0.6928    -0.8013 C.3        1 FEOF      0.0000
     18 C17         -4.2054    -1.0862    -0.7868 C.2        1 FEOF      0.0000
     19 C18         -4.6425    -2.3222    -1.0741 C.2        1 FEOF      0.0000
     20 C19         -6.0715    -2.7092    -1.1425 C.2        1 FEOF      0.0000
     21 N2          -7.0864    -2.0173    -0.7222 N.2        1 FEOF      0.0000
     22 C20         -8.2015    -2.7671    -1.0117 C.2        1 FEOF      0.0000
     23 C21         -9.4797    -2.4048    -0.8252 C.2        1 FEOF      0.0000
     24 C22         -7.7649    -4.0291    -1.6065 C.2        1 FEOF      0.0000
     25 C23         -6.4272    -4.0178    -1.7324 C.2        1 FEOF      0.0000
     26 C24         -5.4855    -5.0140    -2.2910 C.3        1 FEOF      0.0000
     27 C25         -8.5789    -5.1448    -2.0484 C.2        1 FEOF      0.0000
     28 C26         -9.3729    -5.8545    -1.2370 C.2        1 FEOF      0.0000
     29 N3          -4.9275     0.0286    -0.4779 N.2        1 FEOF      0.0000
     30 C27         -2.0075    -1.0677    -2.0952 C.3        1 FEOF      0.0000
     31 C28         -1.9042     1.2878     0.6369 C.3        1 FEOF      0.0000
     32 C29         -0.3902     1.2035     0.4094 C.3        1 FEOF      0.0000
     33 C30          0.2248    -0.1253     0.7861 C.2        1 FEOF      0.0000
     34 O1          -0.2627    -0.9332     1.5642 O.2        1 FEOF      0.0000
     35 O2           1.4266    -0.2579     0.1598 O.2        1 FEOF      0.0000
     36 C31          2.1579    -1.4458     0.4693 C.3        1 FEOF      0.0000
     37 C32          3.0388    -1.3064     1.6813 C.2        1 FEOF      0.0000
     38 C33          3.5832    -0.2084     2.2475 C.2        1 FEOF      0.0000
     39 C34          3.4479     1.1867     1.7013 C.3        1 FEOF      0.0000
     40 C35          4.3725    -0.3382     3.5364 C.3        1 FEOF      0.0000
     41 C36          5.8417    -0.7416     3.3402 C.3        1 FEOF      0.0000
     42 C37          6.6846     0.3459     2.6650 C.3        1 FEOF      0.0000
     43 C38          8.1961     0.0264     2.6283 C.3        1 FEOF      0.0000
     44 C39          8.9591     1.3007     2.2418 C.3        1 FEOF      0.0000
     45 C40          8.5026    -1.1358     1.6576 C.3        1 FEOF      0.0000
     46 C41          9.9874    -1.5106     1.5989 C.3        1 FEOF      0.0000
     47 C42         10.2826    -2.7207     0.7025 C.3        1 FEOF      0.0000
     48 C43          9.8777    -2.5772    -0.7789 C.3        1 FEOF      0.0000
     49 C44         10.2714    -3.8463    -1.5457 C.3        1 FEOF      0.0000
     50 C45         10.4137    -1.3051    -1.4737 C.3        1 FEOF      0.0000
     51 C46         11.9367    -1.1558    -1.4742 C.3        1 FEOF      0.0000
     52 C47         12.4554     0.0191    -2.3175 C.3        1 FEOF      0.0000
     53 C48         12.3207     1.4507    -1.7588 C.3        1 FEOF      0.0000
     54 C49         12.8033     1.5813    -0.3153 C.3        1 FEOF      0.0000
     55 C50         10.9218     2.0445    -1.9135 C.3        1 FEOF      0.0000
     56 C51         -6.1859     2.6506    -0.1972 C.2        1 FEOF      0.0000
     57 N4          -7.2237     1.9105    -0.0294 N.2        1 FEOF      0.0000
     58 C52         -3.4226     4.0157    -1.7664 C.2        1 FEOF      0.0000
     59 O3          -2.2035     3.9079    -1.8632 O.2        1 FEOF      0.0000
     60 O4          -4.2620     4.2144    -2.8236 O.2        1 FEOF      0.0000
     61 C53         -3.6038     4.2791    -4.0889 C.3        1 FEOF      0.0000
     62 O5          -5.2210     6.1095    -0.3080 O.2        1 FEOF      0.0000
     63 C54         -8.7108     5.3620     0.1448 C.3        1 FEOF      0.0000
     64 C55        -12.1654    -2.0377     0.6397 C.3        1 FEOF      0.0000
     65 H1         -11.1770     1.8175     3.0408 H          1 FEOF      0.0000
     66 H2         -12.0079     0.2769     3.3180 H          1 FEOF      0.0000
     67 H3         -12.9269     1.7914     3.2987 H          1 FEOF      0.0000
     68 H4         -13.2877     0.5867     1.1870 H          1 FEOF      0.0000
     69 H5         -12.4703     2.0955     0.8813 H          1 FEOF      0.0000
     70 H6         -10.2766     2.9557     0.8747 H          1 FEOF      0.0000
     71 H7          -3.4918     4.0424     0.3846 H          1 FEOF      0.0000
     72 H8          -2.3533     1.3540    -1.4920 H          1 FEOF      0.0000
     73 H9          -2.2464    -1.1972     0.0392 H          1 FEOF      0.0000
     74 H10         -3.9191    -3.0951    -1.2924 H          1 FEOF      0.0000
     75 H11        -10.2820    -3.0761    -1.0992 H          1 FEOF      0.0000
     76 H12         -5.9940    -5.9244    -2.6238 H          1 FEOF      0.0000
     77 H13         -4.9596    -4.5985    -3.1562 H          1 FEOF      0.0000
     78 H14         -4.7454    -5.3117    -1.5415 H          1 FEOF      0.0000
     79 H15         -8.5093    -5.4070    -3.1009 H          1 FEOF      0.0000
     80 H16         -9.4550    -5.6322    -0.1760 H          1 FEOF      0.0000
     81 H17         -9.9543    -6.6866    -1.6218 H          1 FEOF      0.0000
     82 H18         -5.9572     0.0100    -0.4644 H          1 FEOF      0.0000
     83 H19         -2.5511    -0.7141    -2.9778 H          1 FEOF      0.0000
     84 H20         -1.8962    -2.1540    -2.1816 H          1 FEOF      0.0000
     85 H21         -1.0026    -0.6340    -2.1184 H          1 FEOF      0.0000
     86 H22         -2.2069     0.7130     1.5191 H          1 FEOF      0.0000
     87 H23         -2.1255     2.3334     0.8695 H          1 FEOF      0.0000
     88 H24          0.1022     1.9540     1.0386 H          1 FEOF      0.0000
     89 H25         -0.1522     1.4352    -0.6337 H          1 FEOF      0.0000
     90 H26          2.7860    -1.6821    -0.3960 H          1 FEOF      0.0000
     91 H27          1.4775    -2.2960     0.5956 H          1 FEOF      0.0000
     92 H28          3.2290    -2.2638     2.1662 H          1 FEOF      0.0000
     93 H29          3.3658     1.1963     0.6111 H          1 FEOF      0.0000
     94 H30          4.3241     1.7946     1.9452 H          1 FEOF      0.0000
     95 H31          2.5722     1.6786     2.1340 H          1 FEOF      0.0000
     96 H32          4.3098     0.5966     4.1068 H          1 FEOF      0.0000
     97 H33          3.8925    -1.0940     4.1716 H          1 FEOF      0.0000
     98 H34          6.2682    -0.9555     4.3283 H          1 FEOF      0.0000
     99 H35          5.8898    -1.6735     2.7675 H          1 FEOF      0.0000
    100 H36          6.5315     1.2844     3.2138 H          1 FEOF      0.0000
    101 H37          6.3294     0.5143     1.6415 H          1 FEOF      0.0000
    102 H38          8.5169    -0.2617     3.6379 H          1 FEOF      0.0000
    103 H39         10.0392     1.1711     2.3516 H          1 FEOF      0.0000
    104 H40          8.7508     1.5873     1.2052 H          1 FEOF      0.0000
    105 H41          8.6742     2.1374     2.8885 H          1 FEOF      0.0000
    106 H42          7.9397    -2.0238     1.9621 H          1 FEOF      0.0000
    107 H43          8.1454    -0.8628     0.6581 H          1 FEOF      0.0000
    108 H44         10.3342    -1.7442     2.6125 H          1 FEOF      0.0000
    109 H45         10.5843    -0.6617     1.2563 H          1 FEOF      0.0000
    110 H46         11.3565    -2.9390     0.7691 H          1 FEOF      0.0000
    111 H47          9.7719    -3.5969     1.1240 H          1 FEOF      0.0000
    112 H48          8.7821    -2.5201    -0.8238 H          1 FEOF      0.0000
    113 H49          9.7483    -4.7173    -1.1378 H          1 FEOF      0.0000
    114 H50         10.0019    -3.7627    -2.6036 H          1 FEOF      0.0000
    115 H51         11.3451    -4.0456    -1.4794 H          1 FEOF      0.0000
    116 H52         10.0534    -1.2962    -2.5104 H          1 FEOF      0.0000
    117 H53          9.9604    -0.4387    -0.9894 H          1 FEOF      0.0000
    118 H54         12.3210    -1.0865    -0.4522 H          1 FEOF      0.0000
    119 H55         12.3767    -2.0653    -1.8992 H          1 FEOF      0.0000
    120 H56         12.0093    -0.0258    -3.3193 H          1 FEOF      0.0000
    121 H57         13.5291    -0.1587    -2.4685 H          1 FEOF      0.0000
    122 H58         12.9843     2.0737    -2.3742 H          1 FEOF      0.0000
    123 H59         12.8611     2.6359    -0.0247 H          1 FEOF      0.0000
    124 H60         12.1252     1.0848     0.3856 H          1 FEOF      0.0000
    125 H61         13.8022     1.1473    -0.1956 H          1 FEOF      0.0000
    126 H62         10.2115     1.6284    -1.1962 H          1 FEOF      0.0000
    127 H63         10.9513     3.1260    -1.7372 H          1 FEOF      0.0000
    128 H64         10.5333     1.8851    -2.9241 H          1 FEOF      0.0000
    129 H65         -4.3623     4.4567    -4.8575 H          1 FEOF      0.0000
    130 H66         -3.1077     3.3286    -4.3070 H          1 FEOF      0.0000
    131 H67         -2.8875     5.1056    -4.1086 H          1 FEOF      0.0000
    132 H68         -6.1036     6.5181    -0.2478 H          1 FEOF      0.0000
    133 H69         -9.7795     5.1641     0.2727 H          1 FEOF      0.0000
    134 H70         -8.5964     5.9779    -0.7537 H          1 FEOF      0.0000
    135 H71         -8.3749     5.9476     1.0070 H          1 FEOF      0.0000
    136 H72        -11.6813    -2.8434     1.2002 H          1 FEOF      0.0000
    137 H73        -12.5580    -2.4511    -0.2945 H          1 FEOF      0.0000
    138 H74        -13.0163    -1.6955     1.2360 H          1 FEOF      0.0000
@<TRIPOS>BOND
     1     1     2 1
     2     2     3 1
     3     3     4 2
     4     4     5 1
     5     5     6 2
     6     6     7 1
     7     7     8 2
     8     8     9 1
     9     9    10 2
    10    10    11 1
    11    11    12 2
    12    12    13 1
    13    13    14 1
    14    14    15 2
    15    15    16 1
    16    16    17 1
    17    17    18 1
    18    18    19 2
    19    19    20 1
    20    20    21 2
    21    21    22 1
    22    22    23 2
    23    22    24 1
    24    24    25 2
    25    25    26 1
    26    24    27 1
    27    27    28 2
    28    18    29 1
    29    17    30 1
    30    16    31 1
    31    31    32 1
    32    32    33 1
    33    33    34 2
    34    33    35 1
    35    35    36 1
    36    36    37 1
    37    37    38 2
    38    38    39 1
    39    38    40 1
    40    40    41 1
    41    41    42 1
    42    42    43 1
    43    43    44 1
    44    43    45 1
    45    45    46 1
    46    46    47 1
    47    47    48 1
    48    48    49 1
    49    48    50 1
    50    50    51 1
    51    51    52 1
    52    52    53 1
    53    53    54 1
    54    53    55 1
    55    14    56 1
    56    56    57 2
    57    13    58 1
    58    58    59 2
    59    58    60 1
    60    60    61 1
    61    12    62 1
    62    10    63 1
    63     4    64 1
    64     7     3 1
    65    23     5 1
    66    57     9 1
    67    56    11 1
    68    29    15 1
    69    25    20 1
    70     1    65 1
    71     1    66 1
    72     1    67 1
    73     2    68 1
    74     2    69 1
    75     8    70 1
    76    13    71 1
    77    16    72 1
    78    17    73 1
    79    19    74 1
    80    23    75 1
    81    26    76 1
    82    26    77 1
    83    26    78 1
    84    27    79 1
    85    28    80 1
    86    28    81 1
    87    29    82 1
    88    30    83 1
    89    30    84 1
    90    30    85 1
    91    31    86 1
    92    31    87 1
    93    32    88 1
    94    32    89 1
    95    36    90 1
    96    36    91 1
    97    37    92 1
    98    39    93 1
    99    39    94 1
   100    39    95 1
   101    40    96 1
   102    40    97 1
   103    41    98 1
   104    41    99 1
   105    42   100 1
   106    42   101 1
   107    43   102 1
   108    44   103 1
   109    44   104 1
   110    44   105 1
   111    45   106 1
   112    45   107 1
   113    46   108 1
   114    46   109 1
   115    47   110 1
   116    47   111 1
   117    48   112 1
   118    49   113 1
   119    49   114 1
   120    49   115 1
   121    50   116 1
   122    50   117 1
   123    51   118 1
   124    51   119 1
   125    52   120 1
   126    52   121 1
   127    53   122 1
   128    54   123 1
   129    54   124 1
   130    54   125 1
   131    55   126 1
   132    55   127 1
   133    55   128 1
   134    61   129 1
   135    61   130 1
   136    61   131 1
   137    62   132 1
   138    63   133 1
   139    63   134 1
   140    63   135 1
   141    64   136 1
   142    64   137 1
   143    64   138 1
