@<TRIPOS>MOLECULE
formaldehydi (FORMALDEHYDI)
4 3 1 0 0
SMALL
NO_CHARGES


@<TRIPOS>ATOM
      1 C1          -0.0122     0.0021    -0.0004 C.2        1 FORM      0.0000
      2 O1           1.1946    -0.2027     0.0400 O.2        1 FORM      0.0000
      3 H1          -0.7468    -0.8184    -0.0300 H          1 FORM      0.0000
      4 H2          -0.4356     1.0191    -0.0096 H          1 FORM      0.0000
@<TRIPOS>BOND
     1     1     2 2
     2     1     3 1
     3     1     4 1
