@<TRIPOS>MOLECULE
fosfoseriini (FOSFOSERIINI)
17 16 1 0 0
SMALL
NO_CHARGES


@<TRIPOS>ATOM
      1 N1           0.3977    -0.4073    -1.5366 N.3        1 FOSF      0.0000
      2 C1           0.4509     0.3770    -0.2602 C.3        1 FOSF      0.0000
      3 C2           0.2177    -0.5120     0.9742 C.3        1 FOSF      0.0000
      4 O1          -0.8610    -1.4230     0.8259 O.3        1 FOSF      0.0000
      5 P1          -2.3237    -0.7888     0.4432 P.3        1 FOSF      0.0000
      6 O2          -3.3025    -1.8553     0.8979 O.2        1 FOSF      0.0000
      7 O3          -2.2273    -0.6128    -1.0672 O.3        1 FOSF     -1.0000
      8 O4          -2.3674     0.5147     1.2257 O.3        1 FOSF     -1.0000
      9 C3           1.8063     1.0615    -0.1393 C.2        1 FOSF      0.0000
     10 O5           2.7679     0.7267     0.5431 O.2        1 FOSF      0.0000
     11 O6           1.9347     2.1604    -0.9247 O.2        1 FOSF      0.0000
     12 H1          -0.6522    -0.4013    -1.7037 H          1 FOSF      0.0000
     13 H2           0.4355    -1.3906    -1.2491 H          1 FOSF      0.0000
     14 H3          -0.3081     1.1665    -0.2987 H          1 FOSF      0.0000
     15 H4           0.0643     0.0980     1.8718 H          1 FOSF      0.0000
     16 H5           1.1043    -1.1258     1.1721 H          1 FOSF      0.0000
     17 H6           2.8627     2.4121    -0.7744 H          1 FOSF      0.0000
@<TRIPOS>BOND
     1     1     2 1
     2     2     3 1
     3     3     4 1
     4     4     5 1
     5     5     6 2
     6     5     7 1
     7     5     8 1
     8     2     9 1
     9     9    10 2
    10     9    11 1
    11     1    12 1
    12     1    13 1
    13     2    14 1
    14     3    15 1
    15     3    16 1
    16    11    17 1
