@<TRIPOS>MOLECULE
fruktoosi (avoketju) (FRUKTOOSIAVO)
24 23 1 0 0
SMALL
NO_CHARGES


@<TRIPOS>ATOM
      1 O1          -2.6319     0.2845    -2.8534 O.3        1 FRUK      0.0000
      2 C1          -2.4216    -0.4175    -1.6350 C.3        1 FRUK      0.0000
      3 C2          -1.7902     0.4764    -0.5773 C.2        1 FRUK      0.0000
      4 O2          -1.7240     1.7034    -0.7271 O.2        1 FRUK      0.0000
      5 C3          -1.2002    -0.1885     0.6552 C.3        1 FRUK      0.0000
      6 O3          -1.9087    -1.3966     0.9550 O.3        1 FRUK      0.0000
      7 C4           0.2939    -0.5137     0.4731 C.3        1 FRUK      0.0000
      8 O4           0.6230    -1.3901     1.5736 O.3        1 FRUK      0.0000
      9 C5           1.2057     0.7417     0.4273 C.3        1 FRUK      0.0000
     10 O5           0.9562     1.5487    -0.7216 O.3        1 FRUK      0.0000
     11 C6           2.6976     0.3665     0.3770 C.3        1 FRUK      0.0000
     12 O6           3.0678    -0.4532     1.4824 O.3        1 FRUK      0.0000
     13 H1          -2.8371     1.2078    -2.6082 H          1 FRUK      0.0000
     14 H2          -1.7615    -1.2628    -1.8450 H          1 FRUK      0.0000
     15 H3          -3.3866    -0.7788    -1.2699 H          1 FRUK      0.0000
     16 H4          -1.3512     0.4731     1.5155 H          1 FRUK      0.0000
     17 H5          -1.2736    -1.9232     1.4897 H          1 FRUK      0.0000
     18 H6           0.4284    -1.0977    -0.4456 H          1 FRUK      0.0000
     19 H7           1.5929    -1.3136     1.7246 H          1 FRUK      0.0000
     20 H8           1.0379     1.3410     1.3306 H          1 FRUK      0.0000
     21 H9           0.1037     2.0212    -0.6111 H          1 FRUK      0.0000
     22 H10          3.3108     1.2748     0.3894 H          1 FRUK      0.0000
     23 H11          2.9284    -0.1708    -0.5498 H          1 FRUK      0.0000
     24 H12          4.0402    -0.5325     1.4508 H          1 FRUK      0.0000
@<TRIPOS>BOND
     1     1     2 1
     2     2     3 1
     3     3     4 2
     4     3     5 1
     5     5     6 1
     6     5     7 1
     7     7     8 1
     8     7     9 1
     9     9    10 1
    10     9    11 1
    11    11    12 1
    12     1    13 1
    13     2    14 1
    14     2    15 1
    15     5    16 1
    16     6    17 1
    17     7    18 1
    18     8    19 1
    19     9    20 1
    20    10    21 1
    21    11    22 1
    22    11    23 1
    23    12    24 1
