@<TRIPOS>MOLECULE
fyllokinoni (FYLLOKINONI)
79 80 1 0 0
SMALL
NO_CHARGES


@<TRIPOS>ATOM
      1 C1           7.5897     2.3718     0.1956 C.3        1 FYLL      0.0000
      2 C2           7.6715     0.9108    -0.1521 C.2        1 FYLL      0.0000
      3 C3           6.7282     0.2000    -0.8037 C.2        1 FYLL      0.0000
      4 C4           6.9199    -1.2646    -1.0590 C.2        1 FYLL      0.0000
      5 O1           6.0780    -1.9289    -1.6566 O.2        1 FYLL      0.0000
      6 C5           8.1468    -1.9121    -0.5634 C.ar       1 FYLL      0.0000
      7 C6           8.3308    -3.2902    -0.7557 C.ar       1 FYLL      0.0000
      8 C7           9.4858    -3.9194    -0.2836 C.ar       1 FYLL      0.0000
      9 C8          10.4619    -3.1720     0.3738 C.ar       1 FYLL      0.0000
     10 C9          10.2799    -1.8028     0.5659 C.ar       1 FYLL      0.0000
     11 C10          9.1167    -1.1739     0.0999 C.ar       1 FYLL      0.0000
     12 C11          8.9336     0.2680     0.3203 C.2        1 FYLL      0.0000
     13 O2           9.8082     0.9190     0.8798 O.2        1 FYLL      0.0000
     14 C12          5.4278     0.7626    -1.3428 C.3        1 FYLL      0.0000
     15 C13          4.3003     0.5848    -0.3583 C.2        1 FYLL      0.0000
     16 C14          3.4957     1.5178     0.1911 C.2        1 FYLL      0.0000
     17 C15          3.5668     2.9969    -0.0844 C.3        1 FYLL      0.0000
     18 C16          2.4317     1.0955     1.1942 C.3        1 FYLL      0.0000
     19 C17          1.0021     1.4143     0.7432 C.3        1 FYLL      0.0000
     20 C18         -0.0216     0.7945     1.7053 C.3        1 FYLL      0.0000
     21 C19         -1.4801     1.1617     1.3580 C.3        1 FYLL      0.0000
     22 C20         -1.7801     2.6111     1.7590 C.3        1 FYLL      0.0000
     23 C21         -2.4317     0.1636     2.0582 C.3        1 FYLL      0.0000
     24 C22         -3.9286     0.3917     1.8377 C.3        1 FYLL      0.0000
     25 C23         -4.4148     0.5072     0.3882 C.3        1 FYLL      0.0000
     26 C24         -4.4549    -0.8246    -0.4066 C.3        1 FYLL      0.0000
     27 C25         -3.1282    -1.0824    -1.1257 C.3        1 FYLL      0.0000
     28 C26         -5.5894    -0.7798    -1.4613 C.3        1 FYLL      0.0000
     29 C27         -6.9740    -1.0050    -0.8384 C.3        1 FYLL      0.0000
     30 C28         -8.0930    -0.5894    -1.8031 C.3        1 FYLL      0.0000
     31 C29         -9.5282    -0.7739    -1.2564 C.3        1 FYLL      0.0000
     32 C30         -9.7390    -0.0672     0.0869 C.3        1 FYLL      0.0000
     33 C31         -9.9199    -2.2492    -1.1579 C.3        1 FYLL      0.0000
     34 H1           6.6499     2.8403    -0.1046 H          1 FYLL      0.0000
     35 H2           8.4021     2.9243    -0.2894 H          1 FYLL      0.0000
     36 H3           7.6812     2.5065     1.2793 H          1 FYLL      0.0000
     37 H4           7.5700    -3.8779    -1.2679 H          1 FYLL      0.0000
     38 H5           9.6237    -4.9883    -0.4326 H          1 FYLL      0.0000
     39 H6          11.3652    -3.6556     0.7394 H          1 FYLL      0.0000
     40 H7          11.0470    -1.2265     1.0791 H          1 FYLL      0.0000
     41 H8           5.1586     0.2495    -2.2753 H          1 FYLL      0.0000
     42 H9           5.5553     1.8039    -1.6465 H          1 FYLL      0.0000
     43 H10          4.1257    -0.4600    -0.0892 H          1 FYLL      0.0000
     44 H11          3.6164     3.5585     0.8558 H          1 FYLL      0.0000
     45 H12          2.6793     3.3192    -0.6387 H          1 FYLL      0.0000
     46 H13          4.4325     3.2909    -0.6827 H          1 FYLL      0.0000
     47 H14          2.6372     1.5943     2.1486 H          1 FYLL      0.0000
     48 H15          2.5070     0.0208     1.3969 H          1 FYLL      0.0000
     49 H16          0.8673     2.5007     0.6996 H          1 FYLL      0.0000
     50 H17          0.8320     1.0289    -0.2683 H          1 FYLL      0.0000
     51 H18          0.1983     1.1048     2.7344 H          1 FYLL      0.0000
     52 H19          0.0992    -0.2968     1.6733 H          1 FYLL      0.0000
     53 H20         -1.6037     1.0715     0.2714 H          1 FYLL      0.0000
     54 H21         -2.7972     2.9003     1.4919 H          1 FYLL      0.0000
     55 H22         -1.6641     2.7498     2.8393 H          1 FYLL      0.0000
     56 H23         -1.1077     3.3132     1.2549 H          1 FYLL      0.0000
     57 H24         -2.2435     0.1972     3.1439 H          1 FYLL      0.0000
     58 H25         -2.1812    -0.8596     1.7469 H          1 FYLL      0.0000
     59 H26         -4.4793    -0.4107     2.3381 H          1 FYLL      0.0000
     60 H27         -4.2196     1.3087     2.3654 H          1 FYLL      0.0000
     61 H28         -5.4282     0.9247     0.4510 H          1 FYLL      0.0000
     62 H29         -3.8350     1.2585    -0.1587 H          1 FYLL      0.0000
     63 H30         -4.6486    -1.6628     0.2769 H          1 FYLL      0.0000
     64 H31         -2.2970    -1.1913    -0.4255 H          1 FYLL      0.0000
     65 H32         -2.8955    -0.2668    -1.8190 H          1 FYLL      0.0000
     66 H33         -3.1743    -2.0099    -1.7060 H          1 FYLL      0.0000
     67 H34         -5.4343    -1.5529    -2.2238 H          1 FYLL      0.0000
     68 H35         -5.5514     0.1851    -1.9822 H          1 FYLL      0.0000
     69 H36         -7.0710    -2.0662    -0.5781 H          1 FYLL      0.0000
     70 H37         -7.0602    -0.4491     0.1024 H          1 FYLL      0.0000
     71 H38         -7.9917    -1.1509    -2.7401 H          1 FYLL      0.0000
     72 H39         -7.9630     0.4722    -2.0567 H          1 FYLL      0.0000
     73 H40        -10.2050    -0.2985    -1.9784 H          1 FYLL      0.0000
     74 H41         -9.3922     0.9735     0.0477 H          1 FYLL      0.0000
     75 H42         -9.2081    -0.5775     0.9009 H          1 FYLL      0.0000
     76 H43        -10.8066    -0.0500     0.3475 H          1 FYLL      0.0000
     77 H44         -9.3089    -2.7780    -0.4197 H          1 FYLL      0.0000
     78 H45        -10.9711    -2.3487    -0.8528 H          1 FYLL      0.0000
     79 H46         -9.8016    -2.7550    -2.1200 H          1 FYLL      0.0000
@<TRIPOS>BOND
     1     1     2 1
     2     2     3 2
     3     3     4 1
     4     4     5 2
     5     4     6 1
     6     6     7 ar
     7     7     8 ar
     8     8     9 ar
     9     9    10 ar
    10    10    11 ar
    11    11    12 1
    12    12    13 2
    13     3    14 1
    14    14    15 1
    15    15    16 2
    16    16    17 1
    17    16    18 1
    18    18    19 1
    19    19    20 1
    20    20    21 1
    21    21    22 1
    22    21    23 1
    23    23    24 1
    24    24    25 1
    25    25    26 1
    26    26    27 1
    27    26    28 1
    28    28    29 1
    29    29    30 1
    30    30    31 1
    31    31    32 1
    32    31    33 1
    33    12     2 1
    34    11     6 ar
    35     1    34 1
    36     1    35 1
    37     1    36 1
    38     7    37 1
    39     8    38 1
    40     9    39 1
    41    10    40 1
    42    14    41 1
    43    14    42 1
    44    15    43 1
    45    17    44 1
    46    17    45 1
    47    17    46 1
    48    18    47 1
    49    18    48 1
    50    19    49 1
    51    19    50 1
    52    20    51 1
    53    20    52 1
    54    21    53 1
    55    22    54 1
    56    22    55 1
    57    22    56 1
    58    23    57 1
    59    23    58 1
    60    24    59 1
    61    24    60 1
    62    25    61 1
    63    25    62 1
    64    26    63 1
    65    27    64 1
    66    27    65 1
    67    27    66 1
    68    28    67 1
    69    28    68 1
    70    29    69 1
    71    29    70 1
    72    30    71 1
    73    30    72 1
    74    31    73 1
    75    32    74 1
    76    32    75 1
    77    32    76 1
    78    33    77 1
    79    33    78 1
    80    33    79 1
