@<TRIPOS>MOLECULE
glukoosi-6-fosfaatti (G6P)
29 29 1 0 0
SMALL
NO_CHARGES


@<TRIPOS>ATOM
      1 P1          -3.7153     0.2170    -0.0265 P.3        1 G6P       0.0000
      2 O1           0.4752     0.9999     0.1797 O.3        1 G6P       0.0000
      3 O2           0.9065    -2.5940    -0.3789 O.3        1 G6P       0.0000
      4 O3           3.5132    -1.7409     0.5338 O.3        1 G6P       0.0000
      5 O4           4.0842     0.9980    -0.3898 O.3        1 G6P       0.0000
      6 O5           1.9786     2.7833     0.2327 O.3        1 G6P       0.0000
      7 O6          -2.1376     0.3453    -0.3692 O.3        1 G6P       0.0000
      8 O7          -3.7480     0.0851     1.5850 O.3        1 G6P       0.0000
      9 O8          -4.0747    -1.2773    -0.5293 O.3        1 G6P       0.0000
     10 O9          -4.5781     1.3033    -0.5991 O.2        1 G6P       0.0000
     11 C1           1.1819    -1.3187     0.1948 C.3        1 G6P       0.0000
     12 C2           2.6042    -0.8955    -0.1728 C.3        1 G6P       0.0000
     13 C3           0.1619    -0.3010    -0.3211 C.3        1 G6P       0.0000
     14 C4           2.8637     0.5621     0.2082 C.3        1 G6P       0.0000
     15 C5           1.7384     1.4736    -0.2813 C.3        1 G6P       0.0000
     16 C6          -1.2541    -0.6402     0.1338 C.3        1 G6P       0.0000
     17 H1           1.1036    -1.4254     1.2838 H          1 G6P       0.0000
     18 H2           2.7986    -1.0556    -1.2404 H          1 G6P       0.0000
     19 H3           0.1651    -0.2615    -1.4190 H          1 G6P       0.0000
     20 H4           2.9951     0.6444     1.2938 H          1 G6P       0.0000
     21 H5           1.7249     1.5596    -1.3740 H          1 G6P       0.0000
     22 H6          -1.3097    -0.6335     1.2275 H          1 G6P       0.0000
     23 H7          -1.5548    -1.6254    -0.2346 H          1 G6P       0.0000
     24 H8           0.9665    -2.5076    -1.3456 H          1 G6P       0.0000
     25 H9           3.3138    -2.6586     0.2808 H          1 G6P       0.0000
     26 H10          3.9894     0.9259    -1.3549 H          1 G6P       0.0000
     27 H11          2.3276     2.7018     1.1359 H          1 G6P       0.0000
     28 H12         -4.6158     0.0635     2.0418 H          1 G6P       0.0000
     29 H13         -5.0105    -1.5710    -0.5139 H          1 G6P       0.0000
@<TRIPOS>BOND
     1     1     7 1
     2     1     8 1
     3     1     9 1
     4     1    10 2
     5     2    13 1
     6     2    15 1
     7     3    11 1
     8     3    24 1
     9     4    12 1
    10     4    25 1
    11     5    14 1
    12     5    26 1
    13     6    15 1
    14     6    27 1
    15     7    16 1
    16     8    28 1
    17     9    29 1
    18    11    12 1
    19    11    13 1
    20    11    17 1
    21    12    14 1
    22    12    18 1
    23    13    16 1
    24    13    19 1
    25    14    15 1
    26    14    20 1
    27    15    21 1
    28    16    22 1
    29    16    23 1
