@<TRIPOS>MOLECULE
glukoosi (avoketju) (GLUKOOSIAVO)
24 23 1 0 0
SMALL
NO_CHARGES


@<TRIPOS>ATOM
      1 O1           2.8233     1.2118    -0.2441 O.3        1 GLUK      0.0000
      2 C1           2.7800    -0.2035    -0.0409 C.3        1 GLUK      0.0000
      3 C2           1.4228    -0.7544    -0.5018 C.3        1 GLUK      0.0000
      4 O2           1.3053    -0.5495    -1.9207 O.3        1 GLUK      0.0000
      5 C3           0.2259    -0.0630     0.1925 C.3        1 GLUK      0.0000
      6 O3           0.1751     1.3140    -0.2042 O.3        1 GLUK      0.0000
      7 C4          -1.1080    -0.7457    -0.1878 C.3        1 GLUK      0.0000
      8 O4          -1.4200    -0.6155    -1.5903 O.3        1 GLUK      0.0000
      9 C5          -2.3200    -0.2464     0.6114 C.3        1 GLUK      0.0000
     10 O5          -3.4870    -0.9212     0.1255 O.3        1 GLUK      0.0000
     11 C6          -2.5293     1.2533     0.4911 C.2        1 GLUK      0.0000
     12 O6          -2.6210     2.0018     1.4632 O.2        1 GLUK      0.0000
     13 H1           3.7402     1.4923    -0.0593 H          1 GLUK      0.0000
     14 H2           3.5889    -0.6491    -0.6286 H          1 GLUK      0.0000
     15 H3           2.9440    -0.4058     1.0217 H          1 GLUK      0.0000
     16 H4           1.3966    -1.8341    -0.3199 H          1 GLUK      0.0000
     17 H5           1.4406     0.4138    -2.0493 H          1 GLUK      0.0000
     18 H6           0.3582    -0.1020     1.2799 H          1 GLUK      0.0000
     19 H7           1.0799     1.6801    -0.0914 H          1 GLUK      0.0000
     20 H8          -1.0178    -1.8247    -0.0094 H          1 GLUK      0.0000
     21 H9          -0.5661    -0.6771    -2.0716 H          1 GLUK      0.0000
     22 H10         -2.2045    -0.4921     1.6723 H          1 GLUK      0.0000
     23 H11         -3.3888    -0.9284    -0.8495 H          1 GLUK      0.0000
     24 H12         -2.6183     1.6454    -0.5364 H          1 GLUK      0.0000
@<TRIPOS>BOND
     1     1     2 1
     2     2     3 1
     3     3     4 1
     4     3     5 1
     5     5     6 1
     6     5     7 1
     7     7     8 1
     8     7     9 1
     9     9    10 1
    10     9    11 1
    11    11    12 2
    12     1    13 1
    13     2    14 1
    14     2    15 1
    15     3    16 1
    16     4    17 1
    17     5    18 1
    18     6    19 1
    19     7    20 1
    20     8    21 1
    21     9    22 1
    22    10    23 1
    23    11    24 1
