@<TRIPOS>MOLECULE
glukoosi (GLUKOOSI)
24 24 1 0 0
SMALL
NO_CHARGES


@<TRIPOS>ATOM
      1 O1           3.1867    -0.6356     0.0170 O.3        1 GLUK      0.0000
      2 C1           2.3326     0.4876     0.2092 C.3        1 GLUK      0.0000
      3 C2           0.9516     0.0515     0.7240 C.3        1 GLUK      0.0000
      4 O2           0.1292     1.2127     0.9046 O.3        1 GLUK      0.0000
      5 C3          -0.8549     1.3681    -0.1003 C.3        1 GLUK      0.0000
      6 O3          -1.5673     2.5692     0.1691 O.3        1 GLUK      0.0000
      7 C4          -1.8601     0.1994    -0.0896 C.3        1 GLUK      0.0000
      8 O4          -2.8150     0.3598     0.9799 O.3        1 GLUK      0.0000
      9 C5          -1.1653    -1.1565     0.0889 C.3        1 GLUK      0.0000
     10 O5          -1.7642    -2.0940    -0.8221 O.3        1 GLUK      0.0000
     11 C6           0.3411    -1.0521    -0.1728 C.3        1 GLUK      0.0000
     12 O6           0.9866    -2.3041     0.0909 O.3        1 GLUK      0.0000
     13 H1           4.0728    -0.2854    -0.1904 H          1 GLUK      0.0000
     14 H2           2.7992     1.1733     0.9252 H          1 GLUK      0.0000
     15 H3           2.2381     1.0233    -0.7417 H          1 GLUK      0.0000
     16 H4           1.1071    -0.3761     1.7232 H          1 GLUK      0.0000
     17 H5          -0.3733     1.4642    -1.0808 H          1 GLUK      0.0000
     18 H6          -0.8898     3.2666     0.1605 H          1 GLUK      0.0000
     19 H7          -2.4536     0.2347    -1.0105 H          1 GLUK      0.0000
     20 H8          -2.8849     1.3299     1.1050 H          1 GLUK      0.0000
     21 H9          -1.3282    -1.5630     1.0952 H          1 GLUK      0.0000
     22 H10         -2.6416    -2.3013    -0.4515 H          1 GLUK      0.0000
     23 H11          0.5040    -0.8331    -1.2357 H          1 GLUK      0.0000
     24 H12          1.9491    -2.1391     0.0018 H          1 GLUK      0.0000
@<TRIPOS>BOND
     1     1     2 1
     2     2     3 1
     3     3     4 1
     4     4     5 1
     5     5     6 1
     6     5     7 1
     7     7     8 1
     8     7     9 1
     9     9    10 1
    10     9    11 1
    11    11    12 1
    12    11     3 1
    13     1    13 1
    14     2    14 1
    15     2    15 1
    16     3    16 1
    17     5    17 1
    18     6    18 1
    19     7    19 1
    20     8    20 1
    21     9    21 1
    22    10    22 1
    23    11    23 1
    24    12    24 1
