@<TRIPOS>MOLECULE
glutationi (GLUTATIONI)
37 36 1 0 0
SMALL
NO_CHARGES


@<TRIPOS>ATOM
      1 N1          -3.1374     1.1758    -0.5861 N.3        1 GLUT      0.0000
      2 C1          -4.0186     0.0174    -0.8529 C.3        1 GLUT      0.0000
      3 C2          -3.5086    -1.2656    -0.1777 C.3        1 GLUT      0.0000
      4 C3          -2.0413    -1.5824    -0.4706 C.3        1 GLUT      0.0000
      5 C4          -1.0801    -0.8282     0.4308 C.2        1 GLUT      0.0000
      6 O1          -1.4183    -0.2279     1.4469 O.2        1 GLUT      0.0000
      7 N2           0.2294    -0.9254     0.0290 N.2        1 GLUT      0.0000
      8 C5           1.2963    -0.1768     0.6942 C.3        1 GLUT      0.0000
      9 C6           1.6973    -0.7803     2.0483 C.3        1 GLUT      0.0000
     10 S1           2.2822    -2.5072     1.9477 S.3        1 GLUT      0.0000
     11 C7           2.4815    -0.0594    -0.2838 C.2        1 GLUT      0.0000
     12 O2           2.4779    -0.6151    -1.3833 O.2        1 GLUT      0.0000
     13 N3           3.5217     0.7321     0.1340 N.2        1 GLUT      0.0000
     14 C8           4.7020     0.9326    -0.6922 C.3        1 GLUT      0.0000
     15 C9           5.7198     1.8356    -0.0144 C.2        1 GLUT      0.0000
     16 O3           6.8034     2.1689    -0.4652 O.2        1 GLUT      0.0000
     17 O4           5.3217     2.2847     1.2000 O.2        1 GLUT      0.0000
     18 C10         -5.4578     0.3049    -0.3928 C.2        1 GLUT      0.0000
     19 O5          -6.3400    -0.5167    -0.2014 O.2        1 GLUT      0.0000
     20 O6          -5.7202     1.6246    -0.2435 O.2        1 GLUT      0.0000
     21 H1          -2.9084     1.1885     0.4138 H          1 GLUT      0.0000
     22 H2          -3.6976     2.0219    -0.7318 H          1 GLUT      0.0000
     23 H3          -4.0590    -0.1228    -1.9392 H          1 GLUT      0.0000
     24 H4          -3.6850    -1.2211     0.9049 H          1 GLUT      0.0000
     25 H5          -4.1156    -2.1040    -0.5450 H          1 GLUT      0.0000
     26 H6          -1.8048    -1.3801    -1.5213 H          1 GLUT      0.0000
     27 H7          -1.8672    -2.6499    -0.2879 H          1 GLUT      0.0000
     28 H8           0.4458    -1.2742    -0.9022 H          1 GLUT      0.0000
     29 H9           0.9212     0.8416     0.8599 H          1 GLUT      0.0000
     30 H10          0.8444    -0.7707     2.7344 H          1 GLUT      0.0000
     31 H11          2.4929    -0.1916     2.5155 H          1 GLUT      0.0000
     32 H12          1.1704    -2.9968     1.3771 H          1 GLUT      0.0000
     33 H13          3.4924     1.2383     1.0134 H          1 GLUT      0.0000
     34 H14          4.3859     1.3924    -1.6330 H          1 GLUT      0.0000
     35 H15          5.1569    -0.0441    -0.8813 H          1 GLUT      0.0000
     36 H16          6.0774     2.8379     1.4960 H          1 GLUT      0.0000
     37 H17         -6.6605     1.6430     0.0337 H          1 GLUT      0.0000
@<TRIPOS>BOND
     1     1     2 1
     2     2     3 1
     3     3     4 1
     4     4     5 1
     5     5     6 2
     6     5     7 1
     7     7     8 1
     8     8     9 1
     9     9    10 1
    10     8    11 1
    11    11    12 2
    12    11    13 1
    13    13    14 1
    14    14    15 1
    15    15    16 2
    16    15    17 1
    17     2    18 1
    18    18    19 2
    19    18    20 1
    20     1    21 1
    21     1    22 1
    22     2    23 1
    23     3    24 1
    24     3    25 1
    25     4    26 1
    26     4    27 1
    27     7    28 1
    28     8    29 1
    29     9    30 1
    30     9    31 1
    31    10    32 1
    32    13    33 1
    33    14    34 1
    34    14    35 1
    35    17    36 1
    36    20    37 1
