@<TRIPOS>MOLECULE
glutamiini (GLUTAMIINI)
20 19 1 0 0
SMALL
NO_CHARGES


@<TRIPOS>ATOM
      1 N1          -3.2646     0.0537    -0.8621 N.2        1 GLUT      0.0000
      2 C1          -2.3326     0.3968     0.0745 C.2        1 GLUT      0.0000
      3 O1          -2.6312     1.1034     1.0284 O.2        1 GLUT      0.0000
      4 C2          -0.9468    -0.1437    -0.2055 C.3        1 GLUT      0.0000
      5 C3           0.0314     0.1857     0.9252 C.3        1 GLUT      0.0000
      6 C4           1.4764    -0.2538     0.6646 C.3        1 GLUT      0.0000
      7 N2           1.5643    -1.7119     0.4158 N.3        1 GLUT      0.0000
      8 C5           2.0975     0.5208    -0.5033 C.2        1 GLUT      0.0000
      9 O2           2.4106     0.0561    -1.5897 O.2        1 GLUT      0.0000
     10 O3           2.2904     1.8254    -0.2337 O.2        1 GLUT      0.0000
     11 H1          -4.2201     0.3274    -0.6704 H          1 GLUT      0.0000
     12 H2          -3.1092    -0.6963    -1.5211 H          1 GLUT      0.0000
     13 H3          -1.0278    -1.2286    -0.3366 H          1 GLUT      0.0000
     14 H4          -0.6032     0.2939    -1.1494 H          1 GLUT      0.0000
     15 H5          -0.3252    -0.2853     1.8511 H          1 GLUT      0.0000
     16 H6           0.0141     1.2675     1.1117 H          1 GLUT      0.0000
     17 H7           2.0833    -0.0414     1.5528 H          1 GLUT      0.0000
     18 H8           2.5532    -1.9699     0.3956 H          1 GLUT      0.0000
     19 H9           1.2505    -1.8908    -0.5417 H          1 GLUT      0.0000
     20 H10          2.6891     2.1909    -1.0511 H          1 GLUT      0.0000
@<TRIPOS>BOND
     1     1     2 1
     2     2     3 2
     3     2     4 1
     4     4     5 1
     5     5     6 1
     6     6     7 1
     7     6     8 1
     8     8     9 2
     9     8    10 1
    10     1    11 1
    11     1    12 1
    12     4    13 1
    13     4    14 1
    14     5    15 1
    15     5    16 1
    16     6    17 1
    17     7    18 1
    18     7    19 1
    19    10    20 1
