@<TRIPOS>MOLECULE
glyseroli (GLYSEROLI)
14 13 1 0 0
SMALL
NO_CHARGES


@<TRIPOS>ATOM
      1 O1           2.2262    -0.6321     0.8203 O.3        1 GLYS      0.0000
      2 C1           0.9055    -0.8788     0.3330 C.3        1 GLYS      0.0000
      3 C2           0.4111     0.3526    -0.4304 C.3        1 GLYS      0.0000
      4 O2           0.3777     1.4567     0.4921 O.3        1 GLYS      0.0000
      5 C3          -0.9839     0.1529    -1.0220 C.3        1 GLYS      0.0000
      6 O3          -1.9230    -0.0286     0.0395 O.3        1 GLYS      0.0000
      7 H1           2.2039     0.2795     1.1741 H          1 GLYS      0.0000
      8 H2           0.9380    -1.7622    -0.3112 H          1 GLYS      0.0000
      9 H3           0.2763    -1.0934     1.2027 H          1 GLYS      0.0000
     10 H4           1.1266     0.6145    -1.2169 H          1 GLYS      0.0000
     11 H5          -0.4528     1.3373     0.9975 H          1 GLYS      0.0000
     12 H6          -1.2884     1.0456    -1.5775 H          1 GLYS      0.0000
     13 H7          -1.0173    -0.7177    -1.6839 H          1 GLYS      0.0000
     14 H8          -2.8000    -0.1260    -0.3737 H          1 GLYS      0.0000
@<TRIPOS>BOND
     1     1     2 1
     2     2     3 1
     3     3     4 1
     4     3     5 1
     5     5     6 1
     6     1     7 1
     7     2     8 1
     8     2     9 1
     9     3    10 1
    10     4    11 1
    11     5    12 1
    12     5    13 1
    13     6    14 1
