@<TRIPOS>MOLECULE
glyseraldehydi (GLYSERALDEHYDI)
12 11 1 0 0
SMALL
NO_CHARGES


@<TRIPOS>ATOM
      1 O1          -1.8382     0.5423    -1.0809 O.3        1 GLYS      0.0000
      2 C1          -0.5551    -0.0773    -1.0066 C.3        1 GLYS      0.0000
      3 C2          -0.0759    -0.0973     0.4405 C.3        1 GLYS      0.0000
      4 O2           0.0337     1.2515     0.8982 O.3        1 GLYS      0.0000
      5 C3           1.2455    -0.8362     0.5359 C.2        1 GLYS      0.0000
      6 O3           2.2185    -0.3778     1.1311 O.2        1 GLYS      0.0000
      7 H1          -1.7547     1.3741    -0.5718 H          1 GLYS      0.0000
      8 H2           0.1272     0.4983    -1.6415 H          1 GLYS      0.0000
      9 H3          -0.6381    -1.0881    -1.4178 H          1 GLYS      0.0000
     10 H4          -0.8043    -0.6050     1.0807 H          1 GLYS      0.0000
     11 H5           0.7699     1.2598     1.5441 H          1 GLYS      0.0000
     12 H6           1.2716    -1.8443     0.0883 H          1 GLYS      0.0000
@<TRIPOS>BOND
     1     1     2 1
     2     2     3 1
     3     3     4 1
     4     3     5 1
     5     5     6 2
     6     1     7 1
     7     2     8 1
     8     2     9 1
     9     3    10 1
    10     4    11 1
    11     5    12 1
