@<TRIPOS>MOLECULE
glysyyliglysiini (GLYSYYLIGLYSIINI)
17 16 1 0 0
SMALL
NO_CHARGES


@<TRIPOS>ATOM
      1 N1           3.3560    -0.1635     0.3441 N.3        1 GLYS      0.0000
      2 C1           2.0506    -0.4110    -0.2856 C.3        1 GLYS      0.0000
      3 C2           0.9152     0.1742     0.5630 C.2        1 GLYS      0.0000
      4 O1           1.1019     0.7659     1.6234 O.2        1 GLYS      0.0000
      5 N2          -0.3340    -0.0229     0.0298 N.2        1 GLYS      0.0000
      6 C3          -1.5312     0.4629     0.6956 C.3        1 GLYS      0.0000
      7 C4          -2.7926     0.1263    -0.0830 C.2        1 GLYS      0.0000
      8 O2          -3.9355     0.4093     0.2375 O.2        1 GLYS      0.0000
      9 O3          -2.5580    -0.5524    -1.2311 O.2        1 GLYS      0.0000
     10 H1           3.3158    -0.5405     1.2947 H          1 GLYS      0.0000
     11 H2           3.4363     0.8446     0.5006 H          1 GLYS      0.0000
     12 H3           2.0301     0.0531    -1.2764 H          1 GLYS      0.0000
     13 H4           1.8960    -1.4891    -0.3923 H          1 GLYS      0.0000
     14 H5          -0.4591    -0.5159    -0.8491 H          1 GLYS      0.0000
     15 H6          -1.5849    -0.0030     1.6838 H          1 GLYS      0.0000
     16 H7          -1.4500     1.5494     0.7938 H          1 GLYS      0.0000
     17 H8          -3.4567    -0.6876    -1.6032 H          1 GLYS      0.0000
@<TRIPOS>BOND
     1     1     2 1
     2     2     3 1
     3     3     4 2
     4     3     5 1
     5     5     6 1
     6     6     7 1
     7     7     8 2
     8     7     9 1
     9     1    10 1
    10     1    11 1
    11     2    12 1
    12     2    13 1
    13     5    14 1
    14     6    15 1
    15     6    16 1
    16     9    17 1
