@<TRIPOS>MOLECULE
glysiini (GLYSIINI)
10 9 1 0 0
SMALL
NO_CHARGES


@<TRIPOS>ATOM
      1 N1          -1.1340    -0.0042    -0.9415 N.3        1 GLYS      0.0000
      2 C1          -0.5213    -0.5010     0.3023 C.3        1 GLYS      0.0000
      3 C2           0.9607    -0.1591     0.3693 C.2        1 GLYS      0.0000
      4 O1           1.8283    -0.8151     0.9237 O.2        1 GLYS      0.0000
      5 O2           1.2622     1.0356    -0.1899 O.2        1 GLYS      0.0000
      6 H1          -2.1461     0.0105    -0.8342 H          1 GLYS      0.0000
      7 H2          -0.8367     0.9663    -1.0694 H          1 GLYS      0.0000
      8 H3          -1.0118    -0.0499     1.1700 H          1 GLYS      0.0000
      9 H4          -0.6337    -1.5879     0.3427 H          1 GLYS      0.0000
     10 H5           2.2325     1.1048    -0.0729 H          1 GLYS      0.0000
@<TRIPOS>BOND
     1     1     2 1
     2     2     3 1
     3     3     4 2
     4     3     5 1
     5     1     6 1
     6     1     7 1
     7     2     8 1
     8     2     9 1
     9     5    10 1
