@<TRIPOS>MOLECULE
guanidiini (GUANIDIINI)
9 8 1 0 0
SMALL
NO_CHARGES


@<TRIPOS>ATOM
      1 N1           1.1693     0.0365    -0.5971 N.2        1 GUAN      0.0000
      2 C1           0.0425    -0.2226     0.0835 C.2        1 GUAN      0.0000
      3 N2          -0.8481     0.7781     0.0094 N.2        1 GUAN      0.0000
      4 N3          -0.1169    -1.3175     0.7222 N.2        1 GUAN      0.0000
      5 H1           1.8613    -0.6779    -0.3884 H          1 GUAN      0.0000
      6 H2           1.5430     0.9553    -0.3940 H          1 GUAN      0.0000
      7 H3          -1.7925     0.5231     0.2686 H          1 GUAN      0.0000
      8 H4          -0.8334     1.2401    -0.8933 H          1 GUAN      0.0000
      9 H5          -1.0252    -1.3151     1.1891 H          1 GUAN      0.0000
@<TRIPOS>BOND
     1     1     2 1
     2     2     3 1
     3     2     4 2
     4     1     5 1
     5     1     6 1
     6     3     7 1
     7     3     8 1
     8     4     9 1
