@<TRIPOS>MOLECULE
hemi b (HEMI)
75 82 1 0 0
SMALL
NO_CHARGES


@<TRIPOS>ATOM
      1 C1           0.8076     5.1175     0.5018 C.3        1 HEMI      0.0000
      2 C2           0.8305     3.6155     0.4754 C.2        1 HEMI      0.0000
      3 C3           1.8941     2.8337     0.6356 C.2        1 HEMI      0.0000
      4 C4           1.4341     1.4370     0.5419 C.2        1 HEMI      0.0000
      5 C5           2.3455     0.2859     0.5476 C.2        1 HEMI      0.0000
      6 C6           1.9794    -0.9596     0.2589 C.2        1 HEMI      0.0000
      7 N1           0.6545    -1.3788    -0.0370 N.2        1 HEMI      0.0000
      8 C7           0.7421    -2.6224    -0.3984 C.2        1 HEMI      0.0000
      9 C8          -0.3985    -3.4945    -0.7090 C.2        1 HEMI      0.0000
     10 C9          -1.6730    -3.1518    -0.5343 C.2        1 HEMI      0.0000
     11 C10         -2.8161    -4.0527    -0.6670 C.2        1 HEMI      0.0000
     12 C11         -3.8643    -3.3801    -0.2021 C.2        1 HEMI      0.0000
     13 C12         -3.4066    -2.0143     0.1264 C.2        1 HEMI      0.0000
     14 N2          -2.1275    -1.8912    -0.0597 N.2        1 HEMI      0.0000
     15 C13         -4.3191    -0.9102     0.4580 C.2        1 HEMI      0.0000
     16 C14         -3.9549     0.3664     0.5540 C.2        1 HEMI      0.0000
     17 C15         -4.8682     1.4928     0.7370 C.2        1 HEMI      0.0000
     18 C16         -4.1335     2.5877     0.5697 C.2        1 HEMI      0.0000
     19 C17         -2.7328     2.1585     0.3796 C.2        1 HEMI      0.0000
     20 N3          -2.6372     0.8632     0.3617 N.2        1 HEMI      0.0000
     21 C18         -1.5937     3.0885     0.3650 C.2        1 HEMI      0.0000
     22 C19         -0.3166     2.7152     0.3676 C.2        1 HEMI      0.0000
     23 N4           0.1469     1.3719     0.3866 N.2        1 HEMI      0.0000
     24 C20         -4.6642     3.9665     0.5268 C.2        1 HEMI      0.0000
     25 C21         -4.2716     4.8479    -0.3894 C.2        1 HEMI      0.0000
     26 C22         -6.3659     1.4254     0.8437 C.3        1 HEMI      0.0000
     27 C23         -5.2164    -3.9448    -0.0088 C.2        1 HEMI      0.0000
     28 C24         -5.9287    -3.7152     1.0913 C.2        1 HEMI      0.0000
     29 C25         -2.7707    -5.5148    -1.0120 C.3        1 HEMI      0.0000
     30 C26          2.1400    -3.0896    -0.3762 C.2        1 HEMI      0.0000
     31 C27          2.8888    -2.0897     0.0812 C.2        1 HEMI      0.0000
     32 C28          4.3846    -2.0854     0.2659 C.3        1 HEMI      0.0000
     33 C29          5.0811    -1.5821    -1.0004 C.3        1 HEMI      0.0000
     34 C30          6.5629    -1.5478    -0.8036 C.2        1 HEMI      0.0000
     35 O1           7.1172    -0.5064    -0.3608 O.2        1 HEMI      0.0000
     36 O2           7.3233    -2.6824    -1.0682 O.2        1 HEMI      0.0000
     37 C31          2.6185    -4.4708    -0.7225 C.3        1 HEMI      0.0000
     38 C32          3.3213     3.2905     0.7950 C.3        1 HEMI      0.0000
     39 C33          4.0318     3.3150    -0.5601 C.3        1 HEMI      0.0000
     40 C34          5.4603     3.7244    -0.3942 C.2        1 HEMI      0.0000
     41 O3           6.3491     2.8518    -0.2029 O.2        1 HEMI      0.0000
     42 O4           5.8003     5.0734    -0.4071 O.2        1 HEMI      0.0000
     43 Fe1         -0.9913    -0.2584     0.1635 Fe         1 HEMI      0.0000
     44 H1          -0.0324     5.5030    -0.1110 H          1 HEMI      0.0000
     45 H2           1.7431     5.5339     0.0746 H          1 HEMI      0.0000
     46 H3           0.6910     5.4683     1.5480 H          1 HEMI      0.0000
     47 H4           3.3936     0.4837     0.7169 H          1 HEMI      0.0000
     48 H5          -0.1794    -4.5049    -1.0218 H          1 HEMI      0.0000
     49 H6          -5.3696    -1.1434     0.5430 H          1 HEMI      0.0000
     50 H7          -1.8127     4.1428     0.4386 H          1 HEMI      0.0000
     51 H8          -5.4515     4.2514     1.2126 H          1 HEMI      0.0000
     52 H9          -4.7070     5.8384    -0.4073 H          1 HEMI      0.0000
     53 H10         -3.5424     4.5876    -1.1460 H          1 HEMI      0.0000
     54 H11         -6.6650     0.5623     1.4732 H          1 HEMI      0.0000
     55 H12         -6.8041     1.3100    -0.1693 H          1 HEMI      0.0000
     56 H13         -6.7775     2.3393     1.3177 H          1 HEMI      0.0000
     57 H14         -5.6149    -4.6275    -0.7481 H          1 HEMI      0.0000
     58 H15         -5.5425    -3.1012     1.8950 H          1 HEMI      0.0000
     59 H16         -6.9023    -4.1724     1.2095 H          1 HEMI      0.0000
     60 H17         -2.0249    -5.6950    -1.8131 H          1 HEMI      0.0000
     61 H18         -3.7516    -5.8703    -1.3871 H          1 HEMI      0.0000
     62 H19         -2.4901    -6.0991    -0.1113 H          1 HEMI      0.0000
     63 H20          4.7440    -3.1055     0.5202 H          1 HEMI      0.0000
     64 H21          4.6463    -1.4325     1.1259 H          1 HEMI      0.0000
     65 H22          4.7197    -0.5612    -1.2539 H          1 HEMI      0.0000
     66 H23          4.8433    -2.2539    -1.8534 H          1 HEMI      0.0000
     67 H24          8.3260    -2.6807    -0.9244 H          1 HEMI      0.0000
     68 H25          3.6805    -4.4602    -1.0425 H          1 HEMI      0.0000
     69 H26          2.5067    -5.1336     0.1603 H          1 HEMI      0.0000
     70 H27          2.0291    -4.8807    -1.5675 H          1 HEMI      0.0000
     71 H28          3.8514     2.6052     1.4899 H          1 HEMI      0.0000
     72 H29          3.3550     4.2995     1.2594 H          1 HEMI      0.0000
     73 H30          3.9903     2.3085    -1.0314 H          1 HEMI      0.0000
     74 H31          3.5235     4.0345    -1.2379 H          1 HEMI      0.0000
     75 H32          6.7610     5.3680    -0.2796 H          1 HEMI      0.0000
@<TRIPOS>BOND
     1     1     2 1
     2     2     3 2
     3     3     4 1
     4     4     5 1
     5     5     6 2
     6     6     7 1
     7     7     8 2
     8     8     9 1
     9     9    10 2
    10    10    11 1
    11    11    12 2
    12    12    13 1
    13    13    14 2
    14    13    15 1
    15    15    16 2
    16    16    17 1
    17    17    18 2
    18    18    19 1
    19    19    20 2
    20    19    21 1
    21    21    22 2
    22    22    23 1
    23    18    24 1
    24    24    25 2
    25    17    26 1
    26    12    27 1
    27    27    28 2
    28    11    29 1
    29     8    30 1
    30    30    31 2
    31    31    32 1
    32    32    33 1
    33    33    34 1
    34    34    35 2
    35    34    36 1
    36    30    37 1
    37     3    38 1
    38    38    39 1
    39    39    40 1
    40    40    41 2
    41    40    42 1
    42    22     2 1
    43    23     4 2
    44    31     6 1
    45    14    10 1
    46    20    16 1
    47     7    43 1
    48    14    43 1
    49    20    43 1
    50    23    43 1
    51     1    44 1
    52     1    45 1
    53     1    46 1
    54     5    47 1
    55     9    48 1
    56    15    49 1
    57    21    50 1
    58    24    51 1
    59    25    52 1
    60    25    53 1
    61    26    54 1
    62    26    55 1
    63    26    56 1
    64    27    57 1
    65    28    58 1
    66    28    59 1
    67    29    60 1
    68    29    61 1
    69    29    62 1
    70    32    63 1
    71    32    64 1
    72    33    65 1
    73    33    66 1
    74    36    67 1
    75    37    68 1
    76    37    69 1
    77    37    70 1
    78    38    71 1
    79    38    72 1
    80    39    73 1
    81    39    74 1
    82    42    75 1
