@<TRIPOS>MOLECULE
histamiini (HISTAMIINI)
17 17 1 0 0
SMALL
NO_CHARGES


@<TRIPOS>ATOM
      1 N1          -2.1881    -1.0002    -0.6843 N.3        1 HIST      0.0000
      2 C1          -1.6692     0.3065    -1.1048 C.3        1 HIST      0.0000
      3 C2          -0.8519     1.0210    -0.0193 C.3        1 HIST      0.0000
      4 C3           0.4305     0.3300     0.2975 C.ar       1 HIST      0.0000
      5 C4           1.7201     0.6955    -0.0250 C.ar       1 HIST      0.0000
      6 N2           2.5148    -0.2853     0.5004 N.ar       1 HIST      0.0000
      7 C5           1.6988    -1.1928     1.1124 C.ar       1 HIST      0.0000
      8 N3           0.4358    -0.8506     1.0078 N.ar       1 HIST      0.0000
      9 H1          -1.3874    -1.5407    -0.3312 H          1 HIST      0.0000
     10 H2          -2.7655    -0.8730     0.1472 H          1 HIST      0.0000
     11 H3          -1.0610     0.1667    -2.0057 H          1 HIST      0.0000
     12 H4          -2.5208     0.9361    -1.3851 H          1 HIST      0.0000
     13 H5          -1.4468     1.1158     0.8975 H          1 HIST      0.0000
     14 H6          -0.6371     2.0422    -0.3580 H          1 HIST      0.0000
     15 H7           2.1260     1.5386    -0.5658 H          1 HIST      0.0000
     16 H8           3.5228    -0.3360     0.4487 H          1 HIST      0.0000
     17 H9           2.0789    -2.0738     1.6122 H          1 HIST      0.0000
@<TRIPOS>BOND
     1     1     2 1
     2     2     3 1
     3     3     4 1
     4     4     5 ar
     5     5     6 ar
     6     6     7 ar
     7     7     8 ar
     8     8     4 ar
     9     1     9 1
    10     1    10 1
    11     2    11 1
    12     2    12 1
    13     3    13 1
    14     3    14 1
    15     5    15 1
    16     6    16 1
    17     7    17 1
