@<TRIPOS>MOLECULE
histidiini (HISTIDIINI)
20 20 1 0 0
SMALL
NO_CHARGES


@<TRIPOS>ATOM
      1 N1          -2.6798     0.1149    -0.9748 N.3        1 HIST      0.0000
      2 C1          -1.3917     0.2134    -0.2328 C.3        1 HIST      0.0000
      3 C2          -0.2615    -0.4488    -1.0286 C.3        1 HIST      0.0000
      4 C3           1.0892    -0.0682    -0.5233 C.ar       1 HIST      0.0000
      5 C4           2.0665    -0.8645     0.0333 C.ar       1 HIST      0.0000
      6 N2           3.0975    -0.0179     0.3279 N.ar       1 HIST      0.0000
      7 C5           2.7214     1.2367    -0.0575 C.ar       1 HIST      0.0000
      8 N3           1.5143     1.2400    -0.5744 N.ar       1 HIST      0.0000
      9 C6          -1.5608    -0.4401     1.1453 C.2        1 HIST      0.0000
     10 O1          -0.8650    -1.2911     1.6747 O.2        1 HIST      0.0000
     11 O2          -2.6424     0.0469     1.8062 O.2        1 HIST      0.0000
     12 H1          -3.4056     0.5005    -0.3650 H          1 HIST      0.0000
     13 H2          -2.6311     0.7364    -1.7816 H          1 HIST      0.0000
     14 H3          -1.1726     1.2745    -0.0608 H          1 HIST      0.0000
     15 H4          -0.3701    -1.5410    -1.0200 H          1 HIST      0.0000
     16 H5          -0.3151    -0.1367    -2.0801 H          1 HIST      0.0000
     17 H6           2.1058    -1.9232     0.2487 H          1 HIST      0.0000
     18 H7           3.9777    -0.2688     0.7562 H          1 HIST      0.0000
     19 H8           3.3628     2.0994     0.0636 H          1 HIST      0.0000
     20 H9          -2.6396    -0.4624     2.6430 H          1 HIST      0.0000
@<TRIPOS>BOND
     1     1     2 1
     2     2     3 1
     3     3     4 1
     4     4     5 ar
     5     5     6 ar
     6     6     7 ar
     7     7     8 ar
     8     2     9 1
     9     9    10 2
    10     9    11 1
    11     8     4 ar
    12     1    12 1
    13     1    13 1
    14     2    14 1
    15     3    15 1
    16     3    16 1
    17     5    17 1
    18     6    18 1
    19     7    19 1
    20    11    20 1
