@<TRIPOS>MOLECULE
imidatsoli (IMIDATSOLI)
9 9 1 0 0
SMALL
NO_CHARGES


@<TRIPOS>ATOM
      1 C1          -1.0017     0.7209     0.0378 C.ar       1 IMID      0.0000
      2 C2          -0.7760    -0.6352     0.0470 C.ar       1 IMID      0.0000
      3 N1           0.5834    -0.7685    -0.0168 N.ar       1 IMID      0.0000
      4 C3           1.1173     0.4880    -0.0614 C.ar       1 IMID      0.0000
      5 N2           0.1820     1.4091    -0.0298 N.ar       1 IMID      0.0000
      6 H1          -1.9515     1.2385     0.0761 H          1 IMID      0.0000
      7 H2          -1.4409    -1.4855     0.0919 H          1 IMID      0.0000
      8 H3           1.1047    -1.6343    -0.0292 H          1 IMID      0.0000
      9 H4           2.1828     0.6670    -0.1157 H          1 IMID      0.0000
@<TRIPOS>BOND
     1     1     2 ar
     2     2     3 ar
     3     3     4 ar
     4     4     5 ar
     5     5     1 ar
     6     1     6 1
     7     2     7 1
     8     3     8 1
     9     4     9 1
