@<TRIPOS>MOLECULE
isoleusiini (ISOLEUSIINI)
22 21 1 0 0
SMALL
NO_CHARGES


@<TRIPOS>ATOM
      1 C1           1.8319     0.9913    -0.5877 C.3        1 ISOL      0.0000
      2 C2           1.1483     0.5990     0.7135 C.3        1 ISOL      0.0000
      3 C3           0.1258    -0.5596     0.6478 C.3        1 ISOL      0.0000
      4 C4           0.8008    -1.8806     0.2534 C.3        1 ISOL      0.0000
      5 C5          -1.1426    -0.2911    -0.2009 C.3        1 ISOL      0.0000
      6 N1          -0.8594    -0.2165    -1.6491 N.3        1 ISOL      0.0000
      7 C6          -1.9143     0.9640     0.2452 C.2        1 ISOL      0.0000
      8 O1          -2.4566     1.7806    -0.4860 O.2        1 ISOL      0.0000
      9 O2          -2.0535     1.0686     1.5822 O.2        1 ISOL      0.0000
     10 H1           2.3076     0.1360    -1.0747 H          1 ISOL      0.0000
     11 H2           1.1320     1.4550    -1.2873 H          1 ISOL      0.0000
     12 H3           2.6145     1.7301    -0.3834 H          1 ISOL      0.0000
     13 H4           1.9305     0.3212     1.4324 H          1 ISOL      0.0000
     14 H5           0.6663     1.4899     1.1330 H          1 ISOL      0.0000
     15 H6          -0.2158    -0.7037     1.6832 H          1 ISOL      0.0000
     16 H7           0.0898    -2.7109     0.3236 H          1 ISOL      0.0000
     17 H8           1.6353    -2.1030     0.9272 H          1 ISOL      0.0000
     18 H9           1.1921    -1.8610    -0.7679 H          1 ISOL      0.0000
     19 H10         -1.8458    -1.1222    -0.0567 H          1 ISOL      0.0000
     20 H11         -1.6766     0.1789    -2.1206 H          1 ISOL      0.0000
     21 H12         -0.7313    -1.1547    -2.0220 H          1 ISOL      0.0000
     22 H13         -2.5789     1.8887     1.6947 H          1 ISOL      0.0000
@<TRIPOS>BOND
     1     1     2 1
     2     2     3 1
     3     3     4 1
     4     3     5 1
     5     5     6 1
     6     5     7 1
     7     7     8 2
     8     7     9 1
     9     1    10 1
    10     1    11 1
    11     1    12 1
    12     2    13 1
    13     2    14 1
    14     3    15 1
    15     4    16 1
    16     4    17 1
    17     4    18 1
    18     5    19 1
    19     6    20 1
    20     6    21 1
    21     9    22 1
