@<TRIPOS>MOLECULE
karbamoyylifosfaatti (KARBAMOYYLIFOSFAATTI)
10 9 1 0 0
SMALL
NO_CHARGES


@<TRIPOS>ATOM
      1 N1           2.0058     0.1422     0.6865 N.2        1 KARB      0.0000
      2 C1           0.7123     0.5898     0.6518 C.2        1 KARB      0.0000
      3 O1           0.4945     1.7906     0.5783 O.2        1 KARB      0.0000
      4 O2          -0.0833    -0.4701     0.6516 O.2        1 KARB      0.0000
      5 P1          -1.6818    -0.4864     0.3941 P.3        1 KARB      0.0000
      6 O3          -2.0089    -1.9759     0.4702 O.2        1 KARB      0.0000
      7 O4          -2.2821     0.3266     1.5305 O.3        1 KARB     -1.0000
      8 O5          -1.8498     0.0933    -1.0037 O.3        1 KARB     -1.0000
      9 H1           2.0469    -0.8221     0.3917 H          1 KARB      0.0000
     10 H2           2.6464     0.8120     0.2997 H          1 KARB      0.0000
@<TRIPOS>BOND
     1     1     2 1
     2     2     3 2
     3     2     4 1
     4     4     5 1
     5     5     6 2
     6     5     7 1
     7     5     8 1
     8     1     9 1
     9     1    10 1
