@<TRIPOS>MOLECULE
kreatiini (KREATIINI)
18 17 1 0 0
SMALL
NO_CHARGES


@<TRIPOS>ATOM
      1 C1          -1.3565    -1.4224    -0.1031 C.3        1 KREA      0.0000
      2 N1          -0.3385    -0.3950     0.1026 N.2        1 KREA      0.0000
      3 C2           1.0277    -0.8338    -0.2741 C.3        1 KREA      0.0000
      4 C3           1.9132     0.3054    -0.7616 C.2        1 KREA      0.0000
      5 O1           3.1341     0.3453    -0.6786 O.2        1 KREA      0.0000
      6 O2           1.2652     1.2760    -1.4463 O.2        1 KREA      0.0000
      7 C4          -0.4440     0.4888     1.1422 C.2        1 KREA      0.0000
      8 N2          -1.6852     0.9789     1.3473 N.2        1 KREA      0.0000
      9 N3           0.5537     0.8642     1.8621 N.2        1 KREA      0.0000
     10 H1          -1.3042    -2.1744     0.6914 H          1 KREA      0.0000
     11 H2          -1.2158    -1.9262    -1.0656 H          1 KREA      0.0000
     12 H3          -2.3669    -1.0017    -0.1192 H          1 KREA      0.0000
     13 H4           0.9870    -1.5606    -1.0937 H          1 KREA      0.0000
     14 H5           1.5103    -1.3161     0.5838 H          1 KREA      0.0000
     15 H6           1.9762     1.9181    -1.6436 H          1 KREA      0.0000
     16 H7          -2.1724     1.1293     0.4712 H          1 KREA      0.0000
     17 H8          -1.7165     1.8157     1.9136 H          1 KREA      0.0000
     18 H9           0.2326     1.5082     2.5851 H          1 KREA      0.0000
@<TRIPOS>BOND
     1     1     2 1
     2     2     3 1
     3     3     4 1
     4     4     5 2
     5     4     6 1
     6     2     7 1
     7     7     8 1
     8     7     9 2
     9     1    10 1
    10     1    11 1
    11     1    12 1
    12     3    13 1
    13     3    14 1
    14     6    15 1
    15     8    16 1
    16     8    17 1
    17     9    18 1
