@<TRIPOS>MOLECULE
kreatiniini (KREATINIINI)
15 15 1 0 0
SMALL
NO_CHARGES


@<TRIPOS>ATOM
      1 C1           0.4390    -1.5635    -0.5770 C.3        1 KREA      0.0000
      2 N1          -0.0299    -0.4272     0.1892 N.2        1 KREA      0.0000
      3 C2          -1.4626    -0.1209     0.1248 C.3        1 KREA      0.0000
      4 C3          -1.4367     1.4038     0.2684 C.2        1 KREA      0.0000
      5 O1          -2.4333     2.1102     0.3372 O.2        1 KREA      0.0000
      6 N2          -0.1240     1.8439     0.2872 N.2        1 KREA      0.0000
      7 C4           0.6107     0.7768     0.2207 C.2        1 KREA      0.0000
      8 N3           1.9562     0.7786     0.1850 N.2        1 KREA      0.0000
      9 H1          -0.2168    -2.4264    -0.4199 H          1 KREA      0.0000
     10 H2           0.4553    -1.3321    -1.6472 H          1 KREA      0.0000
     11 H3           1.4462    -1.8589    -0.2665 H          1 KREA      0.0000
     12 H4          -1.9993    -0.5740     0.9614 H          1 KREA      0.0000
     13 H5          -1.9030    -0.3876    -0.8403 H          1 KREA      0.0000
     14 H6           2.3266     1.7012     0.3931 H          1 KREA      0.0000
     15 H7           2.3714     0.0761     0.7839 H          1 KREA      0.0000
@<TRIPOS>BOND
     1     1     2 1
     2     2     3 1
     3     3     4 1
     4     4     5 2
     5     4     6 1
     6     6     7 2
     7     7     8 1
     8     7     2 1
     9     1     9 1
    10     1    10 1
    11     1    11 1
    12     3    12 1
    13     3    13 1
    14     8    14 1
    15     8    15 1
