@<TRIPOS>MOLECULE
kysteiini (KYSTEIINI)
14 13 1 0 0
SMALL
NO_CHARGES


@<TRIPOS>ATOM
      1 N1          -1.4474    -0.5047     0.8824 N.3        1 KYST      0.0000
      2 C1          -0.4919    -0.3032    -0.2301 C.3        1 KYST      0.0000
      3 C2          -0.3386     1.1807    -0.6089 C.3        1 KYST      0.0000
      4 S1           0.2091     2.2864     0.7392 S.3        1 KYST      0.0000
      5 C3           0.8382    -0.9966     0.0927 C.2        1 KYST      0.0000
      6 O1           0.9897    -1.9506     0.8430 O.2        1 KYST      0.0000
      7 O2           1.8890    -0.5360    -0.6137 O.2        1 KYST      0.0000
      8 H1          -1.4405    -1.4908     1.1511 H          1 KYST      0.0000
      9 H2          -2.3916    -0.2773     0.5793 H          1 KYST      0.0000
     10 H3          -0.8884    -0.8354    -1.1043 H          1 KYST      0.0000
     11 H4           0.3681     1.2964    -1.4375 H          1 KYST      0.0000
     12 H5          -1.3027     1.5645    -0.9616 H          1 KYST      0.0000
     13 H6           1.3737     1.6688     0.9837 H          1 KYST      0.0000
     14 H7           2.6331    -1.1022    -0.3152 H          1 KYST      0.0000
@<TRIPOS>BOND
     1     1     2 1
     2     2     3 1
     3     3     4 1
     4     2     5 1
     5     5     6 2
     6     5     7 1
     7     1     8 1
     8     1     9 1
     9     2    10 1
    10     3    11 1
    11     3    12 1
    12     4    13 1
    13     7    14 1
