@<TRIPOS>MOLECULE
kystiini (KYSTIINI)
26 25 1 0 0
SMALL
NO_CHARGES


@<TRIPOS>ATOM
      1 N1          -3.4349    -0.7271    -1.8000 N.3        1 KYST      0.0000
      2 C1          -2.7753     0.1964    -0.8351 C.3        1 KYST      0.0000
      3 C2          -2.0581    -0.5842     0.2762 C.3        1 KYST      0.0000
      4 S1          -1.0290     0.4433     1.3885 S.3        1 KYST      0.0000
      5 S2           0.5085     1.0601     0.1681 S.3        1 KYST      0.0000
      6 C3           1.6772    -0.3418     0.2828 C.3        1 KYST      0.0000
      7 C4           2.9418    -0.1084    -0.5527 C.3        1 KYST      0.0000
      8 N2           3.7188    -1.3783    -0.6566 N.3        1 KYST      0.0000
      9 C5           3.8144     0.9770     0.0858 C.2        1 KYST      0.0000
     10 O1           3.8380     2.1610    -0.2046 O.2        1 KYST      0.0000
     11 O2           4.6158     0.5024     1.0684 O.2        1 KYST      0.0000
     12 C6          -3.8343     1.1205    -0.2288 C.2        1 KYST      0.0000
     13 O3          -3.7573     2.3292    -0.0822 O.2        1 KYST      0.0000
     14 O4          -4.9411     0.4562     0.1841 O.2        1 KYST      0.0000
     15 H1          -2.7905    -1.4676    -2.0693 H          1 KYST      0.0000
     16 H2          -4.2221    -1.1741    -1.3232 H          1 KYST      0.0000
     17 H3          -2.0784     0.8101    -1.4143 H          1 KYST      0.0000
     18 H4          -2.7899    -1.0962     0.9121 H          1 KYST      0.0000
     19 H5          -1.4155    -1.3636    -0.1490 H          1 KYST      0.0000
     20 H6           1.9361    -0.4950     1.3368 H          1 KYST      0.0000
     21 H7           1.1579    -1.2359    -0.0799 H          1 KYST      0.0000
     22 H8           2.6947     0.2003    -1.5747 H          1 KYST      0.0000
     23 H9           4.5192    -1.2121    -1.2693 H          1 KYST      0.0000
     24 H10          4.1371    -1.5510     0.2638 H          1 KYST      0.0000
     25 H11          5.0886     1.3023     1.3850 H          1 KYST      0.0000
     26 H12         -5.5216     1.1763     0.5107 H          1 KYST      0.0000
@<TRIPOS>BOND
     1     1     2 1
     2     2     3 1
     3     3     4 1
     4     4     5 1
     5     5     6 1
     6     6     7 1
     7     7     8 1
     8     7     9 1
     9     9    10 2
    10     9    11 1
    11     2    12 1
    12    12    13 2
    13    12    14 1
    14     1    15 1
    15     1    16 1
    16     2    17 1
    17     3    18 1
    18     3    19 1
    19     6    20 1
    20     6    21 1
    21     7    22 1
    22     8    23 1
    23     8    24 1
    24    11    25 1
    25    14    26 1
