@<TRIPOS>MOLECULE
lipoiinihappo (LIPOIINIHAPPO)
26 26 1 0 0
SMALL
NO_CHARGES


@<TRIPOS>ATOM
      1 O1           5.4312    -0.1155    -0.5588 O.2        1 LIPO      0.0000
      2 C1           4.2128    -0.3551    -1.0826 C.2        1 LIPO      0.0000
      3 O2           4.0975    -0.7399    -2.2330 O.2        1 LIPO      0.0000
      4 C2           3.1149    -0.0956    -0.0869 C.3        1 LIPO      0.0000
      5 C3           1.7339    -0.3209    -0.6998 C.3        1 LIPO      0.0000
      6 C4           0.6222    -0.0642     0.3197 C.3        1 LIPO      0.0000
      7 C5          -0.7617    -0.2790    -0.3047 C.3        1 LIPO      0.0000
      8 C6          -1.9150    -0.1374     0.6967 C.3        1 LIPO      0.0000
      9 C7          -3.2609    -0.5004     0.0572 C.3        1 LIPO      0.0000
     10 C8          -4.3978    -0.1749     1.0184 C.3        1 LIPO      0.0000
     11 S1          -4.1373     1.5229     1.5844 S.3        1 LIPO      0.0000
     12 S2          -2.1063     1.5682     1.3132 S.3        1 LIPO      0.0000
     13 H1           6.0492    -0.3166    -1.2926 H          1 LIPO      0.0000
     14 H2           3.2025     0.9406     0.2579 H          1 LIPO      0.0000
     15 H3           3.2595    -0.7696     0.7646 H          1 LIPO      0.0000
     16 H4           1.6602    -1.3491    -1.0758 H          1 LIPO      0.0000
     17 H5           1.6025     0.3409    -1.5651 H          1 LIPO      0.0000
     18 H6           0.7144     0.9597     0.6985 H          1 LIPO      0.0000
     19 H7           0.7474    -0.7397     1.1746 H          1 LIPO      0.0000
     20 H8          -0.7960    -1.2905    -0.7305 H          1 LIPO      0.0000
     21 H9          -0.8985     0.4133    -1.1457 H          1 LIPO      0.0000
     22 H10         -1.7328    -0.7887     1.5600 H          1 LIPO      0.0000
     23 H11         -3.2838    -1.5691    -0.1880 H          1 LIPO      0.0000
     24 H12         -3.4018     0.0355    -0.8920 H          1 LIPO      0.0000
     25 H13         -5.3711    -0.2652     0.5277 H          1 LIPO      0.0000
     26 H14         -4.3853    -0.8471     1.8826 H          1 LIPO      0.0000
@<TRIPOS>BOND
     1     1     2 1
     2     2     3 2
     3     2     4 1
     4     4     5 1
     5     5     6 1
     6     6     7 1
     7     7     8 1
     8     8     9 1
     9     9    10 1
    10    10    11 1
    11    11    12 1
    12    12     8 1
    13     1    13 1
    14     4    14 1
    15     4    15 1
    16     5    16 1
    17     5    17 1
    18     6    18 1
    19     6    19 1
    20     7    20 1
    21     7    21 1
    22     8    22 1
    23     9    23 1
    24     9    24 1
    25    10    25 1
    26    10    26 1
