@<TRIPOS>MOLECULE
lysiini (LYSIINI)
24 23 1 0 0
SMALL
NO_CHARGES


@<TRIPOS>ATOM
      1 N1          -3.5496     0.5764     0.6268 N.3        1 LYSI      0.0000
      2 C1          -3.0353    -0.6801     0.0971 C.3        1 LYSI      0.0000
      3 C2          -1.5756    -0.9197     0.4885 C.3        1 LYSI      0.0000
      4 C3          -0.6024     0.0923    -0.1265 C.3        1 LYSI      0.0000
      5 C4           0.8486    -0.2546     0.2271 C.3        1 LYSI      0.0000
      6 C5           1.8639     0.7789    -0.2813 C.3        1 LYSI      0.0000
      7 N2           1.9830     0.7863    -1.7554 N.3        1 LYSI      0.0000
      8 C6           3.2263     0.4840     0.3573 C.2        1 LYSI      0.0000
      9 O1           3.6290     0.9076     1.4294 O.2        1 LYSI      0.0000
     10 O2           3.9760    -0.3911    -0.3534 O.2        1 LYSI      0.0000
     11 H1          -3.0703     1.3626     0.1911 H          1 LYSI      0.0000
     12 H2          -4.5324     0.6725     0.3732 H          1 LYSI      0.0000
     13 H3          -3.1423    -0.6910    -0.9932 H          1 LYSI      0.0000
     14 H4          -3.6457    -1.4994     0.4924 H          1 LYSI      0.0000
     15 H5          -1.4800    -0.9067     1.5817 H          1 LYSI      0.0000
     16 H6          -1.2955    -1.9290     0.1617 H          1 LYSI      0.0000
     17 H7          -0.8276     1.1004     0.2393 H          1 LYSI      0.0000
     18 H8          -0.7370     0.1009    -1.2135 H          1 LYSI      0.0000
     19 H9           1.0968    -1.2488    -0.1679 H          1 LYSI      0.0000
     20 H10          0.9367    -0.3339     1.3190 H          1 LYSI      0.0000
     21 H11          1.5734     1.7878     0.0324 H          1 LYSI      0.0000
     22 H12          2.4950    -0.0560    -2.0301 H          1 LYSI      0.0000
     23 H13          1.0653     0.7244    -2.1869 H          1 LYSI      0.0000
     24 H14          4.7995    -0.4639     0.1725 H          1 LYSI      0.0000
@<TRIPOS>BOND
     1     1     2 1
     2     2     3 1
     3     3     4 1
     4     4     5 1
     5     5     6 1
     6     6     7 1
     7     6     8 1
     8     8     9 2
     9     8    10 1
    10     1    11 1
    11     1    12 1
    12     2    13 1
    13     2    14 1
    14     3    15 1
    15     3    16 1
    16     4    17 1
    17     4    18 1
    18     5    19 1
    19     5    20 1
    20     6    21 1
    21     7    22 1
    22     7    23 1
    23    10    24 1
