@<TRIPOS>MOLECULE
maitohappo (MAITOHAPPO)
12 11 1 0 0
SMALL
NO_CHARGES


@<TRIPOS>ATOM
      1 C1          -1.1100    -0.7253     0.4304 C.3        1 MAIT      0.0000
      2 C2          -0.2705     0.0163    -0.5949 C.3        1 MAIT      0.0000
      3 O1          -0.9878     1.1799    -1.0078 O.3        1 MAIT      0.0000
      4 C3           1.0905     0.3835    -0.0123 C.2        1 MAIT      0.0000
      5 O2           1.4667     1.5180     0.2438 O.2        1 MAIT      0.0000
      6 O3           1.8878    -0.6772     0.2142 O.2        1 MAIT      0.0000
      7 H1          -1.2769    -0.1060     1.3191 H          1 MAIT      0.0000
      8 H2          -0.6283    -1.6547     0.7496 H          1 MAIT      0.0000
      9 H3          -2.0966    -0.9646     0.0196 H          1 MAIT      0.0000
     10 H4          -0.1112    -0.5971    -1.4873 H          1 MAIT      0.0000
     11 H5          -0.6789     1.9157    -0.4436 H          1 MAIT      0.0000
     12 H6           2.7152    -0.2884     0.5691 H          1 MAIT      0.0000
@<TRIPOS>BOND
     1     1     2 1
     2     2     3 1
     3     2     4 1
     4     4     5 2
     5     4     6 1
     6     1     7 1
     7     1     8 1
     8     1     9 1
     9     2    10 1
    10     3    11 1
    11     6    12 1
