@<TRIPOS>MOLECULE
maleiinihappoanhydridi (MALEIINIHAPPOANHYDRIDI)
9 9 1 0 0
SMALL
NO_CHARGES


@<TRIPOS>ATOM
      1 O1           2.2679    -0.9771     0.0261 O.2        1 MALE      0.0000
      2 C1           1.1053    -0.6220     0.0105 C.2        1 MALE      0.0000
      3 C2           0.6546     0.7610     0.0237 C.2        1 MALE      0.0000
      4 C3          -0.6715     0.7465    -0.0006 C.2        1 MALE      0.0000
      5 C4          -1.0910    -0.6461    -0.0299 C.2        1 MALE      0.0000
      6 O2          -2.2454    -1.0266    -0.0568 O.2        1 MALE      0.0000
      7 O3           0.0159    -1.4154    -0.0217 O.2        1 MALE      0.0000
      8 H1           1.3208     1.6045     0.0489 H          1 MALE      0.0000
      9 H2          -1.3566     1.5752    -0.0003 H          1 MALE      0.0000
@<TRIPOS>BOND
     1     1     2 2
     2     2     3 1
     3     3     4 2
     4     4     5 1
     5     5     6 2
     6     5     7 1
     7     7     2 1
     8     3     8 1
     9     4     9 1
