@<TRIPOS>MOLECULE
maltoosi (MALTOOSI)
45 46 1 0 0
SMALL
NO_CHARGES


@<TRIPOS>ATOM
      1 O1          -1.6220     2.7126     1.6341 O.3        1 MALT      0.0000
      2 C1          -2.7225     2.0253     1.0358 C.3        1 MALT      0.0000
      3 C2          -2.2786     0.6831     0.4486 C.3        1 MALT      0.0000
      4 O2          -1.5582     0.9711    -0.7635 O.3        1 MALT      0.0000
      5 C3          -0.9071    -0.1900    -1.2900 C.3        1 MALT      0.0000
      6 O3           0.0746    -0.6276    -0.3595 O.3        1 MALT      0.0000
      7 C4           1.4087    -0.7034    -0.8658 C.3        1 MALT      0.0000
      8 C5           2.1634    -1.6839     0.0486 C.3        1 MALT      0.0000
      9 O4           3.2306    -2.3368    -0.6536 O.3        1 MALT      0.0000
     10 C6           2.7139    -0.9409     1.2583 C.3        1 MALT      0.0000
     11 O5           3.3964    -1.8738     2.1194 O.3        1 MALT      0.0000
     12 C7           3.6824     0.1703     0.8061 C.3        1 MALT      0.0000
     13 O6           3.5862     1.2755     1.7032 O.3        1 MALT      0.0000
     14 O7           3.4917     0.6346    -0.5188 O.3        1 MALT      0.0000
     15 C8           2.1319     0.6763    -0.9818 C.3        1 MALT      0.0000
     16 C9           1.4383     1.9408    -0.4393 C.3        1 MALT      0.0000
     17 O8           1.0405     1.8496     0.9249 O.3        1 MALT      0.0000
     18 C10         -1.9301    -1.3036    -1.6198 C.3        1 MALT      0.0000
     19 O9          -2.6850    -0.9246    -2.7872 O.3        1 MALT      0.0000
     20 C11         -2.9063    -1.5739    -0.4557 C.3        1 MALT      0.0000
     21 O10         -2.2793    -2.3474     0.5692 O.3        1 MALT      0.0000
     22 C12         -3.4525    -0.2540     0.1224 C.3        1 MALT      0.0000
     23 O11         -4.3319     0.3283    -0.8528 O.3        1 MALT      0.0000
     24 H1          -0.8000     2.4290     1.1734 H          1 MALT      0.0000
     25 H2          -3.1320     2.6829     0.2625 H          1 MALT      0.0000
     26 H3          -3.4756     1.8833     1.8166 H          1 MALT      0.0000
     27 H4          -1.6023     0.2101     1.1718 H          1 MALT      0.0000
     28 H5          -0.4371     0.1374    -2.2252 H          1 MALT      0.0000
     29 H6           1.3750    -1.1603    -1.8647 H          1 MALT      0.0000
     30 H7           1.4921    -2.4831     0.3864 H          1 MALT      0.0000
     31 H8           3.6937    -2.8649     0.0270 H          1 MALT      0.0000
     32 H9           1.8869    -0.5266     1.8464 H          1 MALT      0.0000
     33 H10          3.6028    -1.3829     2.9369 H          1 MALT      0.0000
     34 H11          4.7129    -0.1977     0.8735 H          1 MALT      0.0000
     35 H12          4.4149     1.7706     1.5676 H          1 MALT      0.0000
     36 H13          2.2371     0.8615    -2.0590 H          1 MALT      0.0000
     37 H14          0.5556     2.1826    -1.0344 H          1 MALT      0.0000
     38 H15          2.1151     2.7997    -0.5197 H          1 MALT      0.0000
     39 H16          1.8702     1.8513     1.4495 H          1 MALT      0.0000
     40 H17         -1.3880    -2.2242    -1.8644 H          1 MALT      0.0000
     41 H18         -3.2986    -0.2156    -2.4960 H          1 MALT      0.0000
     42 H19         -3.7443    -2.1658    -0.8461 H          1 MALT      0.0000
     43 H20         -2.9839    -2.7516     1.1056 H          1 MALT      0.0000
     44 H21         -4.0338    -0.4587     1.0286 H          1 MALT      0.0000
     45 H22         -4.7461     1.1153    -0.4557 H          1 MALT      0.0000
@<TRIPOS>BOND
     1     1     2 1
     2     2     3 1
     3     3     4 1
     4     4     5 1
     5     5     6 1
     6     6     7 1
     7     7     8 1
     8     8     9 1
     9     8    10 1
    10    10    11 1
    11    10    12 1
    12    12    13 1
    13    12    14 1
    14    14    15 1
    15    15    16 1
    16    16    17 1
    17     5    18 1
    18    18    19 1
    19    18    20 1
    20    20    21 1
    21    20    22 1
    22    22    23 1
    23    22     3 1
    24    15     7 1
    25     1    24 1
    26     2    25 1
    27     2    26 1
    28     3    27 1
    29     5    28 1
    30     7    29 1
    31     8    30 1
    32     9    31 1
    33    10    32 1
    34    11    33 1
    35    12    34 1
    36    13    35 1
    37    15    36 1
    38    16    37 1
    39    16    38 1
    40    17    39 1
    41    18    40 1
    42    19    41 1
    43    20    42 1
    44    21    43 1
    45    22    44 1
    46    23    45 1
