@<TRIPOS>MOLECULE
meripihkahappoanhydridi (MERIPIHKAHAPPOANHYDRIDI)
11 11 1 0 0
SMALL
NO_CHARGES


@<TRIPOS>ATOM
      1 O1           1.9392     0.8643    -1.4453 O.2        1 MERI      0.0000
      2 C1           0.9459     0.6147    -0.7820 C.2        1 MERI      0.0000
      3 C2           0.5370    -0.7473    -0.3379 C.3        1 MERI      0.0000
      4 C3          -0.5657    -0.4721     0.6466 C.3        1 MERI      0.0000
      5 C4          -0.9091     0.9537     0.3850 C.2        1 MERI      0.0000
      6 O2          -1.8828     1.5324     0.8386 O.2        1 MERI      0.0000
      7 O3           0.0361     1.5337    -0.3882 O.2        1 MERI      0.0000
      8 H1           1.3720    -1.2720     0.1328 H          1 MERI      0.0000
      9 H2           0.1724    -1.3125    -1.2006 H          1 MERI      0.0000
     10 H3          -0.2168    -0.5746     1.6783 H          1 MERI      0.0000
     11 H4          -1.4283    -1.1201     0.4728 H          1 MERI      0.0000
@<TRIPOS>BOND
     1     1     2 2
     2     2     3 1
     3     3     4 1
     4     4     5 1
     5     5     6 2
     6     5     7 1
     7     7     2 1
     8     3     8 1
     9     3     9 1
    10     4    10 1
    11     4    11 1
