@<TRIPOS>MOLECULE
merkaptoetanoli (MERKAPTOETANOLI)
10 9 1 0 0
SMALL
NO_CHARGES


@<TRIPOS>ATOM
      1 O1          -1.6668    -0.5317    -0.0655 O.3        1 MERK      0.0000
      2 C1          -0.6326     0.1784     0.6088 C.3        1 MERK      0.0000
      3 C2           0.4591     0.6186    -0.3615 C.3        1 MERK      0.0000
      4 S1           1.3099    -0.8270    -1.0763 S.3        1 MERK      0.0000
      5 H1          -1.2308    -1.2092    -0.6159 H          1 MERK      0.0000
      6 H2          -1.0891     1.0572     1.0750 H          1 MERK      0.0000
      7 H3          -0.2357    -0.4546     1.4096 H          1 MERK      0.0000
      8 H4           0.0243     1.1875    -1.1889 H          1 MERK      0.0000
      9 H5           1.1972     1.2433     0.1494 H          1 MERK      0.0000
     10 H6           1.8646    -1.2624     0.0652 H          1 MERK      0.0000
@<TRIPOS>BOND
     1     1     2 1
     2     2     3 1
     3     3     4 1
     4     1     5 1
     5     2     6 1
     6     2     7 1
     7     3     8 1
     8     3     9 1
     9     4    10 1
