@<TRIPOS>MOLECULE
metaanitioli (METAANITIOLI)
6 5 1 0 0
SMALL
NO_CHARGES


@<TRIPOS>ATOM
      1 C1          -0.4925    -0.0061     0.0365 C.3        1 META      0.0000
      2 S1           1.1749    -0.1585     0.7080 S.3        1 META      0.0000
      3 H1          -0.6364     0.9952    -0.3770 H          1 META      0.0000
      4 H2          -0.6430    -0.7439    -0.7555 H          1 META      0.0000
      5 H3          -1.2278    -0.1753     0.8269 H          1 META      0.0000
      6 H4           1.8248     0.0887    -0.4388 H          1 META      0.0000
@<TRIPOS>BOND
     1     1     2 1
     2     1     3 1
     3     1     4 1
     4     1     5 1
     5     2     6 1
