@<TRIPOS>MOLECULE
metyyliammoniumioni (METYYLIAMMONIUM)
8 7 1 0 0
SMALL
NO_CHARGES


@<TRIPOS>ATOM
      1 C1          -0.7479    -0.0175     0.0869 C.3        1 METY      0.0000
      2 N1           0.7175     0.0168    -0.0833 N.3        1 METY      1.0000
      3 H1          -1.1486     0.9304    -0.2772 H          1 METY      0.0000
      4 H2          -1.1323    -0.8562    -0.4966 H          1 METY      0.0000
      5 H3          -0.9576    -0.1499     1.1499 H          1 METY      0.0000
      6 H4           0.9773     0.1404    -1.0708 H          1 METY      0.0000
      7 H5           1.1383     0.7913     0.4467 H          1 METY      0.0000
      8 H6           1.1533    -0.8553     0.2445 H          1 METY      0.0000
@<TRIPOS>BOND
     1     1     2 1
     2     1     3 1
     3     1     4 1
     4     1     5 1
     5     2     6 1
     6     2     7 1
     7     2     8 1
