@<TRIPOS>MOLECULE
metyylifosfaatti (METYYLIFOSFAATTI)
9 8 1 0 0
SMALL
NO_CHARGES


@<TRIPOS>ATOM
      1 C1          -1.2592    -0.0749    -0.1377 C.3        1 METY      0.0000
      2 O1          -0.0411    -0.3166    -0.7999 O.3        1 METY      0.0000
      3 P1           1.3021     0.0496     0.0720 P.3        1 METY      0.0000
      4 O2           1.1485     1.5373     0.3605 O.2        1 METY      0.0000
      5 O3           1.1873    -0.8433     1.3006 O.3        1 METY     -1.0000
      6 O4           2.4440    -0.3032    -0.8685 O.3        1 METY     -1.0000
      7 H1          -1.3380    -0.6811     0.7687 H          1 METY      0.0000
      8 H2          -2.0784    -0.3524    -0.8066 H          1 METY      0.0000
      9 H3          -1.3651     0.9845     0.1109 H          1 METY      0.0000
@<TRIPOS>BOND
     1     1     2 1
     2     2     3 1
     3     3     4 2
     4     3     5 1
     5     3     6 1
     6     1     7 1
     7     1     8 1
     8     1     9 1
