@<TRIPOS>MOLECULE
metyyliasetaatti (METYYLIASETAATTI)
11 10 1 0 0
SMALL
NO_CHARGES


@<TRIPOS>ATOM
      1 C1           1.8147    -0.0993     0.1029 C.3        1 METY      0.0000
      2 C2           0.3934    -0.3882     0.4780 C.2        1 METY      0.0000
      3 O1           0.0366    -1.3439     1.1521 O.2        1 METY      0.0000
      4 O2          -0.4280     0.5652    -0.0409 O.2        1 METY      0.0000
      5 C3          -1.8087     0.3698     0.2676 C.3        1 METY      0.0000
      6 H1           2.4648    -0.8711     0.5248 H          1 METY      0.0000
      7 H2           2.1157     0.8696     0.5090 H          1 METY      0.0000
      8 H3           1.9208    -0.1112    -0.9848 H          1 METY      0.0000
      9 H4          -1.9685     0.4045     1.3498 H          1 METY      0.0000
     10 H5          -2.1638    -0.5787    -0.1474 H          1 METY      0.0000
     11 H6          -2.3770     1.1831    -0.1923 H          1 METY      0.0000
@<TRIPOS>BOND
     1     1     2 1
     2     2     3 2
     3     2     4 1
     4     4     5 1
     5     1     6 1
     6     1     7 1
     7     1     8 1
     8     5     9 1
     9     5    10 1
    10     5    11 1
