@<TRIPOS>MOLECULE
4-metyyli-imidatsoli (METYYLIIMIDATSOLI)
12 12 1 0 0
SMALL
NO_CHARGES


@<TRIPOS>ATOM
      1 C1           1.9035    -0.0563     0.1035 C.3        1 METY      0.0000
      2 C2           0.4260    -0.0822     0.0497 C.ar       1 METY      0.0000
      3 C3          -0.4494     0.8997    -0.3620 C.ar       1 METY      0.0000
      4 N1          -1.6953     0.3578    -0.2094 N.ar       1 METY      0.0000
      5 C4          -1.5366    -0.9069     0.2791 C.ar       1 METY      0.0000
      6 N2          -0.2683    -1.2014     0.4459 N.ar       1 METY      0.0000
      7 H1           2.2976     0.9035    -0.2449 H          1 METY      0.0000
      8 H2           2.3204    -0.8466    -0.5282 H          1 METY      0.0000
      9 H3           2.2489    -0.2153     1.1296 H          1 METY      0.0000
     10 H4          -0.2973     1.9016    -0.7370 H          1 METY      0.0000
     11 H5          -2.5767     0.8056    -0.4179 H          1 METY      0.0000
     12 H6          -2.3727    -1.5595     0.4915 H          1 METY      0.0000
@<TRIPOS>BOND
     1     1     2 1
     2     2     3 ar
     3     3     4 ar
     4     4     5 ar
     5     5     6 ar
     6     6     2 ar
     7     1     7 1
     8     1     8 1
     9     1     9 1
    10     3    10 1
    11     4    11 1
    12     5    12 1
