@<TRIPOS>MOLECULE
metyyliguanidiniumioni (METYYLIGUANIDINIUM)
13 12 1 0 0
SMALL
NO_CHARGES


@<TRIPOS>ATOM
      1 C1          -1.7069    -0.1547     0.5977 C.3        1 METY      0.0000
      2 N1          -0.3494    -0.6644     0.4134 N.2        1 METY      0.0000
      3 C2           0.6370     0.0063    -0.1994 C.2        1 METY      0.0000
      4 N2           1.8437    -0.5571    -0.3123 N.2        1 METY      0.0000
      5 N3           0.4521     1.2280    -0.7046 N.2        1 METY      1.0000
      6 H1          -1.6800     0.7527     1.2059 H          1 METY      0.0000
      7 H2          -2.1683     0.0243    -0.3765 H          1 METY      0.0000
      8 H3          -2.2892    -0.9140     1.1269 H          1 METY      0.0000
      9 H4          -0.1380    -1.5869     0.7727 H          1 METY      0.0000
     10 H5           2.6090    -0.0774    -0.7689 H          1 METY      0.0000
     11 H6           2.0377    -1.4807     0.0530 H          1 METY      0.0000
     12 H7           1.1971     1.7324    -1.1664 H          1 METY      0.0000
     13 H8          -0.4446     1.6917    -0.6415 H          1 METY      0.0000
@<TRIPOS>BOND
     1     1     2 1
     2     2     3 1
     3     3     4 1
     4     3     5 2
     5     1     6 1
     6     1     7 1
     7     1     8 1
     8     2     9 1
     9     4    10 1
    10     4    11 1
    11     5    12 1
    12     5    13 1
