@<TRIPOS>MOLECULE
S-metyylitioasetaatti (METYYLITIOASETAATTI)
11 10 1 0 0
SMALL
NO_CHARGES


@<TRIPOS>ATOM
      1 C1           1.6663     1.0875     0.4615 C.3        1 METY      0.0000
      2 C2           0.6461     0.0670     0.0460 C.2        1 METY      0.0000
      3 O1           0.9317    -0.9810    -0.5189 O.2        1 METY      0.0000
      4 S1          -1.0125     0.5063     0.4422 S.3        1 METY      0.0000
      5 C3          -1.8640    -0.9460    -0.2114 C.3        1 METY      0.0000
      6 H1           2.6634     0.7366     0.1789 H          1 METY      0.0000
      7 H2           1.6440     1.2254     1.5460 H          1 METY      0.0000
      8 H3           1.4791     2.0382    -0.0453 H          1 METY      0.0000
      9 H4          -1.6896    -1.0436    -1.2864 H          1 METY      0.0000
     10 H5          -1.5255    -1.8527     0.2976 H          1 METY      0.0000
     11 H6          -2.9391    -0.8376    -0.0445 H          1 METY      0.0000
@<TRIPOS>BOND
     1     1     2 1
     2     2     3 2
     3     2     4 1
     4     4     5 1
     5     1     6 1
     6     1     7 1
     7     1     8 1
     8     5     9 1
     9     5    10 1
    10     5    11 1
