@<TRIPOS>MOLECULE
N-asetyylikysteiini (NASETYYLIKYSTEIINI)
19 18 1 0 0
SMALL
NO_CHARGES


@<TRIPOS>ATOM
      1 C1           2.8380     0.5451     0.3518 C.3        1 NASE      0.0000
      2 C2           1.5764     0.1098    -0.3430 C.2        1 NASE      0.0000
      3 O1           1.5240    -0.0705    -1.5548 O.2        1 NASE      0.0000
      4 N1           0.4979    -0.0511     0.4960 N.2        1 NASE      0.0000
      5 C3          -0.8360    -0.3043    -0.0617 C.3        1 NASE      0.0000
      6 C4          -1.7193    -1.1126     0.8955 C.3        1 NASE      0.0000
      7 S1          -1.0126    -2.7404     1.3231 S.3        1 NASE      0.0000
      8 C5          -1.5680     1.0078    -0.3580 C.2        1 NASE      0.0000
      9 O2          -2.6547     1.1106    -0.9069 O.2        1 NASE      0.0000
     10 O3          -0.9482     2.1129     0.1134 O.2        1 NASE      0.0000
     11 H1           3.6773    -0.0441    -0.0277 H          1 NASE      0.0000
     12 H2           2.7738     0.3912     1.4327 H          1 NASE      0.0000
     13 H3           3.0096     1.6057     0.1509 H          1 NASE      0.0000
     14 H4           0.5309     0.4472     1.3769 H          1 NASE      0.0000
     15 H5          -0.7258    -0.8284    -1.0186 H          1 NASE      0.0000
     16 H6          -1.8753    -0.5643     1.8316 H          1 NASE      0.0000
     17 H7          -2.7064    -1.2843     0.4525 H          1 NASE      0.0000
     18 H8          -0.8596    -3.1813     0.0648 H          1 NASE      0.0000
     19 H9          -1.5222     2.8508    -0.1842 H          1 NASE      0.0000
@<TRIPOS>BOND
     1     1     2 1
     2     2     3 2
     3     2     4 1
     4     4     5 1
     5     5     6 1
     6     6     7 1
     7     5     8 1
     8     8     9 2
     9     8    10 1
    10     1    11 1
    11     1    12 1
    12     1    13 1
    13     4    14 1
    14     5    15 1
    15     6    16 1
    16     6    17 1
    17     7    18 1
    18    10    19 1
