@<TRIPOS>MOLECULE
N-metyylietaani-imiini (NMETYYLIETAANIIMIINI)
11 10 1 0 0
SMALL
NO_CHARGES


@<TRIPOS>ATOM
      1 C1          -1.8380    -0.1294     0.2483 C.3        1 NMET      0.0000
      2 C2          -0.4240     0.1095    -0.1814 C.2        1 NMET      0.0000
      3 N1           0.5584    -0.3225     0.5284 N.2        1 NMET      0.0000
      4 C3           1.8710    -0.0025    -0.0255 C.3        1 NMET      0.0000
      5 H1          -2.3527    -0.6977    -0.5306 H          1 NMET      0.0000
      6 H2          -1.8743    -0.6811     1.1908 H          1 NMET      0.0000
      7 H3          -2.3389     0.8348     0.3668 H          1 NMET      0.0000
      8 H4          -0.2823     0.6640    -1.1263 H          1 NMET      0.0000
      9 H5           1.9047     0.9929    -0.4828 H          1 NMET      0.0000
     10 H6           2.6117    -0.0164     0.7800 H          1 NMET      0.0000
     11 H7           2.1644    -0.7515    -0.7677 H          1 NMET      0.0000
@<TRIPOS>BOND
     1     1     2 1
     2     2     3 2
     3     3     4 1
     4     1     5 1
     5     1     6 1
     6     1     7 1
     7     2     8 1
     8     4     9 1
     9     4    10 1
    10     4    11 1
