@<TRIPOS>MOLECULE
nuk-A-DA
32 34 1 0 0
SMALL
NO_CHARGES


@<TRIPOS>ATOM
      1 P          8.7365    -5.0115    -1.0568 P.3        1 DA      0.0000
      2 OP1        9.6961    -6.1005    -0.7014 O.co2      1 DA      0.0000
      3 OP2        7.4569    -5.1963    -0.1611 O.co2      1 DA      0.0000
      4 O5'        9.1624    -3.5044    -0.8077 O.3        1 DA      0.0000
      5 C5'        9.3732    -2.5265    -1.8367 C.3        1 DA      0.0000
      6 C4'        8.6413    -1.2814    -1.3624 C.3        1 DA      0.0000
      7 O4'        7.2450    -1.4675    -1.4528 O.3        1 DA      0.0000
      8 C3'        8.9371    -0.8259     0.0666 C.3        1 DA      0.0000
      9 O3'        9.1981     0.5918     0.1189 O.3        1 DA      0.0000
     10 C2'        7.6522    -1.2260     0.8021 C.3        1 DA      0.0000
     11 C1'        6.6373    -0.8758    -0.2755 C.3        1 DA      0.0000
     12 N9         5.3092    -1.4540    -0.0471 N.ar       1 DA      0.0000
     13 C8         4.9418    -2.7519     0.1687 C.ar       1 DA      0.0000
     14 N7         3.6486    -2.9192     0.3336 N.ar       1 DA      0.0000
     15 C5         3.1275    -1.6416     0.1934 C.ar       1 DA      0.0000
     16 C6         1.8003    -1.1620     0.2414 C.ar       1 DA      0.0000
     17 N6         0.7285    -1.9272     0.4612 N.pl3      1 DA      0.0000
     18 N1         1.6600     0.1837     0.0516 N.ar       1 DA      0.0000
     19 C2         2.7335     0.9781    -0.1662 C.ar       1 DA      0.0000
     20 N3         4.0091     0.5973    -0.2244 N.ar       1 DA      0.0000
     21 C4         4.1283    -0.7298    -0.0376 C.ar       1 DA      0.0000
     22 H5'        8.9607    -2.8741    -2.7839 H          1 DA      0.0000
     23 H5''      10.4377    -2.3182    -1.9445 H          1 DA      0.0000
     24 H4'        8.9101    -0.4645    -2.0322 H          1 DA      0.0000
     25 H3'        9.7865    -1.3787     0.4681 H          1 DA      0.0000
     26 H2'        7.6365    -2.2879     1.0476 H          1 DA      0.0000
     27 H2''       7.5044    -0.6157     1.6930 H          1 DA      0.0000
     28 H1'        6.5646     0.2057    -0.3900 H          1 DA      0.0000
     29 H8         5.6499    -3.5668     0.2007 H          1 DA      0.0000
     30 H2         2.5359     2.0304    -0.3075 H          1 DA      0.0000
     31 H61        0.7050    -2.9322     0.3638 H          1 DA      0.0000
     32 H62       -0.1853    -1.5326     0.2897 H          1 DA      0.0000
@<TRIPOS>BOND
     1      1      2 1
     2      1      3 1
     3      1      4 1
     4      4      5 1
     5      5      6 1
     6      6      7 1
     7      6      8 1
     8      7     11 1
     9      8      9 1
    10      8     10 1
    11     10     11 1
    12     11     12 1
    13     12     13 ar
    14     12     21 ar
    15     13     14 ar
    16     14     15 ar
    17     15     16 ar
    18     15     21 ar
    19     16     17 1
    20     16     18 ar
    21     18     19 ar
    22     19     20 ar
    23     20     21 ar
    24     22      5 1
    25     23      5 1
    26     24      6 1
    27     25      8 1
    28     26     10 1
    29     27     10 1
    30     28     11 1
    31     29     13 1
    32     30     19 1
    33     31     17 1
    34     32     17 1
@<TRIPOS>MOLECULE
nuk-A-DC
30 31 1 0 0
SMALL
NO_CHARGES


@<TRIPOS>ATOM
      1 P          7.9395    -4.4982    -3.1726 P.3        1 DC      0.0000
      2 OP1        8.9547    -4.1391    -4.2405 O.co2      1 DC      0.0000
      3 OP2        8.1956    -5.7503    -2.4376 O.co2      1 DC      0.0000
      4 O5'        7.6335    -3.1256    -2.3466 O.3        1 DC      0.0000
      5 C5'        7.0642    -2.2276    -3.3688 C.3        1 DC      0.0000
      6 C4'        6.6837    -0.9522    -2.6723 C.3        1 DC      0.0000
      7 O4'        5.3147    -0.8632    -2.4254 O.3        1 DC      0.0000
      8 C3'        7.4427    -0.6688    -1.3809 C.3        1 DC      0.0000
      9 O3'        8.0983     0.5899    -1.4605 O.3        1 DC      0.0000
     10 C2'        6.3428    -0.8475    -0.3321 C.3        1 DC      0.0000
     11 C1'        5.0945    -0.4738    -1.0285 C.3        1 DC      0.0000
     12 N1         3.8894    -1.2404    -0.6964 N.am       1 DC      0.0000
     13 C2         2.7431    -0.4911    -0.4406 C.2        1 DC      0.0000
     14 O2         2.7698     0.7434    -0.4361 O.2        1 DC      0.0000
     15 N3         1.5863    -1.1783    -0.1668 N.2        1 DC      0.0000
     16 C4         1.5486    -2.5417    -0.1767 C.2        1 DC      0.0000
     17 N4         0.3823    -3.1143     0.1002 N.pl3      1 DC      0.0000
     18 C5         2.7150    -3.2879    -0.4547 C.2        1 DC      0.0000
     19 C6         3.8436    -2.5983    -0.7195 C.2        1 DC      0.0000
     20 H5'        7.8048    -2.0247    -4.1425 H          1 DC      0.0000
     21 H5''       6.1802    -2.6851    -3.8130 H          1 DC      0.0000
     22 H4'        6.9274    -0.1410    -3.3583 H          1 DC      0.0000
     23 H3'        8.1930    -1.4463    -1.2376 H          1 DC      0.0000
     24 H2'        6.2989    -1.8828     0.0058 H          1 DC      0.0000
     25 H2''       6.5164    -0.1819     0.5135 H          1 DC      0.0000
     26 H1'        4.9092     0.5972    -0.9475 H          1 DC      0.0000
     27 H5         2.7037    -4.3678    -0.4553 H          1 DC      0.0000
     28 H6         4.7436    -3.1453    -0.9585 H          1 DC      0.0000
     29 H41       -0.4262    -2.5428     0.2994 H          1 DC      0.0000
     30 H42        0.3042    -4.1213     0.1115 H          1 DC      0.0000
@<TRIPOS>BOND
     1      1      2 1
     2      1      3 1
     3      1      4 1
     4      4      5 1
     5      5      6 1
     6      6      7 1
     7      6      8 1
     8      7     11 1
     9      8      9 1
    10      8     10 1
    11     10     11 1
    12     11     12 1
    13     12     13 am
    14     12     19 1
    15     13     14 2
    16     13     15 1
    17     15     16 2
    18     16     17 2
    19     16     18 2
    20     18     19 2
    21     20      5 1
    22     21      5 1
    23     22      6 1
    24     23      8 1
    25     24     10 1
    26     25     10 1
    27     26     11 1
    28     27     18 1
    29     28     19 1
    30     29     17 1
    31     30     17 1
@<TRIPOS>MOLECULE
nuk-A-DG
33 35 1 0 0
SMALL
NO_CHARGES


@<TRIPOS>ATOM
      1 P          9.1033    -4.1847     0.5479 P.3        1 DG      0.0000
      2 OP1        9.9946    -5.3709     0.5464 O.co2      1 DG      0.0000
      3 OP2        8.0192    -4.4464     1.6036 O.co2      1 DG      0.0000
      4 O5'        9.7976    -2.7642     0.7263 O.3        1 DG      0.0000
      5 C5'       10.0964    -1.7672    -0.2737 C.3        1 DG      0.0000
      6 C4'        9.5856    -0.4315     0.2251 C.3        1 DG      0.0000
      7 O4'        8.2618    -0.1794    -0.1940 O.3        1 DG      0.0000
      8 C3'        9.6240    -0.1705     1.7173 C.3        1 DG      0.0000
      9 O3'       10.3345     1.0580     2.0293 O.3        1 DG      0.0000
     10 C2'        8.1672    -0.1451     2.1392 C.3        1 DG      0.0000
     11 C1'        7.4421     0.2749     0.8836 C.3        1 DG      0.0000
     12 N9         6.0945    -0.3222     0.8545 N.ar       1 DG      0.0000
     13 C8         5.7118    -1.6228     1.0834 C.ar       1 DG      0.0000
     14 N7         4.4166    -1.8247     0.9937 N.ar       1 DG      0.0000
     15 C5         3.9068    -0.5683     0.6767 C.ar       1 DG      0.0000
     16 C6         2.5832    -0.1164     0.4508 C.2        1 DG      0.0000
     17 O6         1.5402    -0.7706     0.4720 O.2        1 DG      0.0000
     18 N1         2.4632     1.2169     0.1693 N.am       1 DG      0.0000
     19 C2         3.4769     2.0199     0.1086 C.2        1 DG      0.0000
     20 N2         3.0936     3.2006    -0.1882 N.pl3      1 DG      0.0000
     21 N3         4.8151     1.6710     0.3173 N.2        1 DG      0.0000
     22 C4         4.9247     0.3628     0.5899 C.ar       1 DG      0.0000
     23 H5'       11.1735    -1.7145    -0.4324 H          1 DG      0.0000
     24 H5''       9.5994    -2.0245    -1.2090 H          1 DG      0.0000
     25 H4'       10.2090     0.3323    -0.2396 H          1 DG      0.0000
     26 H3'       10.1225    -1.0045     2.2113 H          1 DG      0.0000
     27 H2'        7.8395    -1.1319     2.4662 H          1 DG      0.0000
     28 H2''       8.0131     0.5883     2.9307 H          1 DG      0.0000
     29 H1'        7.3628     1.3615     0.8516 H          1 DG      0.0000
     30 H8         6.4142    -2.4094     1.3165 H          1 DG      0.0000
     31 H1         1.5408     1.5924     0.0009 H          1 DG      0.0000
     32 H21        2.1124     3.3917    -0.3325 H          1 DG      0.0000
     33 H22        3.7715     3.9438    -0.2786 H          1 DG      0.0000
@<TRIPOS>BOND
     1      1      2 1
     2      1      3 1
     3      1      4 1
     4      4      5 1
     5      5      6 1
     6      6      7 1
     7      6      8 1
     8      7     11 1
     9      8      9 1
    10      8     10 1
    11     10     11 1
    12     11     12 1
    13     12     13 ar
    14     12     22 ar
    15     13     14 ar
    16     14     15 ar
    17     15     16 1
    18     15     22 ar
    19     16     17 2
    20     16     18 am
    21     18     19 1
    22     19     20 2
    23     19     21 2
    24     21     22 1
    25     23      5 1
    26     24      5 1
    27     25      6 1
    28     26      8 1
    29     27     10 1
    30     28     10 1
    31     29     11 1
    32     30     13 1
    33     31     18 1
    34     32     20 1
    35     33     20 1
@<TRIPOS>MOLECULE
nuk-A-DT
32 33 1 0 0
SMALL
NO_CHARGES


@<TRIPOS>ATOM
      1 P          9.3641    -4.6058     0.1394 P.3        1 DT      0.0000
      2 OP1       10.7494    -4.9048     0.6510 O.co2      1 DT      0.0000
      3 OP2        8.4259    -5.4095     1.0580 O.co2      1 DT      0.0000
      4 O5'        8.9475    -3.1130     0.1679 O.3        1 DT      0.0000
      5 C5'        9.8963    -2.0205     0.0240 C.3        1 DT      0.0000
      6 C4'        9.0474    -0.7677     0.0815 C.3        1 DT      0.0000
      7 O4'        7.6891    -1.0311    -0.1937 O.3        1 DT      0.0000
      8 C3'        9.0345    -0.0260     1.3942 C.3        1 DT      0.0000
      9 O3'        9.6460     1.2587     1.2060 O.3        1 DT      0.0000
     10 C2'        7.5630     0.1040     1.7864 C.3        1 DT      0.0000
     11 C1'        6.9045     0.0248     0.4337 C.3        1 DT      0.0000
     12 N1         5.5255    -0.4545     0.5303 N.am       1 DT      0.0000
     13 C2         4.5255     0.4586     0.3324 C.2        1 DT      0.0000
     14 O2         4.7510     1.6429     0.0942 O.2        1 DT      0.0000
     15 N3         3.2380     0.0006     0.4134 N.am       1 DT      0.0000
     16 C4         2.9324    -1.2916     0.6693 C.2        1 DT      0.0000
     17 O4         1.7040    -1.5631     0.7146 O.2        1 DT      0.0000
     18 C5         3.9923    -2.2334     0.8690 C.2        1 DT      0.0000
     19 C7         3.6972    -3.6712     1.1489 C.3        1 DT      0.0000
     20 C6         5.2485    -1.7766     0.7876 C.2        1 DT      0.0000
     21 H5'       10.6217    -2.0313     0.8374 H          1 DT      0.0000
     22 H5''      10.4059    -2.0873    -0.9372 H          1 DT      0.0000
     23 H4'        9.4142    -0.0829    -0.6831 H          1 DT      0.0000
     24 H3'        9.5765    -0.5928     2.1513 H          1 DT      0.0000
     25 H2'        7.2468    -0.7128     2.4352 H          1 DT      0.0000
     26 H2''       7.3704     1.0688     2.2556 H          1 DT      0.0000
     27 H1'        6.9739     0.9660    -0.1116 H          1 DT      0.0000
     28 H3         2.4829     0.6570     0.2760 H          1 DT      0.0000
     29 H6         6.0676    -2.4665     0.9279 H          1 DT      0.0000
     30 H71        3.8529    -4.2576     0.2434 H          1 DT      0.0000
     31 H72        2.6618    -3.7728     1.4737 H          1 DT      0.0000
     32 H73        4.3614    -4.0322     1.9342 H          1 DT      0.0000
@<TRIPOS>BOND
     1      1      2 1
     2      1      3 1
     3      1      4 1
     4      4      5 1
     5      5      6 1
     6      6      7 1
     7      6      8 1
     8      7     11 1
     9      8      9 1
    10      8     10 1
    11     10     11 1
    12     11     12 1
    13     12     13 am
    14     12     20 1
    15     13     14 2
    16     13     15 am
    17     15     16 am
    18     16     17 2
    19     16     18 1
    20     18     19 1
    21     18     20 2
    22     21      5 1
    23     22      5 1
    24     23      6 1
    25     24      8 1
    26     25     10 1
    27     26     10 1
    28     27     11 1
    29     28     15 1
    30     29     20 1
    31     30     19 1
    32     31     19 1
    33     32     19 1
@<TRIPOS>MOLECULE
nuk-B-DA
32 34 1 0 0
SMALL
NO_CHARGES


@<TRIPOS>ATOM
      1 P         -7.1802     4.6632     1.0671 P.3        1 DA      0.0000
      2 OP1       -8.0233     5.8581     0.6776 O.co2      1 DA      0.0000
      3 OP2       -7.6344     3.3657     0.4970 O.co2      1 DA      0.0000
      4 O5'       -5.6437     5.0634     0.9015 O.3        1 DA      0.0000
      5 C5'       -5.2242     6.4048     1.3670 C.3        1 DA      0.0000
      6 C4'       -4.0132     6.6725     0.4897 C.3        1 DA      0.0000
      7 O4'       -2.9967     5.6979     0.7570 O.3        1 DA      0.0000
      8 C3'       -4.3038     6.5273    -1.0147 C.3        1 DA      0.0000
      9 O3'       -3.2937     7.1354    -1.8038 O.3        1 DA      0.0000
     10 C2'       -4.1076     5.0116    -1.2022 C.3        1 DA      0.0000
     11 C1'       -2.7510     4.9598    -0.4475 C.3        1 DA      0.0000
     12 N9        -2.4683     3.5355    -0.3021 N.ar       1 DA      0.0000
     13 C8        -3.3956     2.5201    -0.2293 C.ar       1 DA      0.0000
     14 N7        -2.8572     1.3320    -0.1146 N.ar       1 DA      0.0000
     15 C5        -1.4755     1.5944    -0.1210 C.ar       1 DA      0.0000
     16 C6        -0.3601     0.7181    -0.0211 C.ar       1 DA      0.0000
     17 N6        -0.4655    -0.6082     0.1018 N.pl3      1 DA      0.0000
     18 N1         0.8507     1.3419    -0.0562 N.ar       1 DA      0.0000
     19 C2         0.9582     2.6879    -0.1751 C.ar       1 DA      0.0000
     20 N3        -0.0435     3.5674    -0.2666 N.ar       1 DA      0.0000
     21 C4        -1.2326     2.9406    -0.2390 C.ar       1 DA      0.0000
     22 H5'       -6.0065     7.1453     1.2002 H          1 DA      0.0000
     23 H5''      -4.9391     6.3758     2.4186 H          1 DA      0.0000
     24 H4'       -3.6264     7.6710     0.6936 H          1 DA      0.0000
     25 H3'       -5.3064     6.8591    -1.2844 H          1 DA      0.0000
     26 H2'       -4.8854     4.4190    -0.7206 H          1 DA      0.0000
     27 H2''      -3.9936     4.7475    -2.2536 H          1 DA      0.0000
     28 H1'       -1.9711     5.4430    -1.0360 H          1 DA      0.0000
     29 H8        -4.4620     2.6873    -0.2633 H          1 DA      0.0000
     30 H2         1.9594     3.0921    -0.1983 H          1 DA      0.0000
     31 H61       -1.3772    -1.0421     0.1265 H          1 DA      0.0000
     32 H62        0.3664    -1.1768     0.1699 H          1 DA      0.0000
@<TRIPOS>BOND
     1      1      2 1
     2      1      3 1
     3      1      4 1
     4      4      5 1
     5      5      6 1
     6      6      7 1
     7      6      8 1
     8      7     11 1
     9      8      9 1
    10      8     10 1
    11     10     11 1
    12     11     12 1
    13     12     13 ar
    14     12     21 ar
    15     13     14 ar
    16     14     15 ar
    17     15     16 ar
    18     15     21 ar
    19     16     17 1
    20     16     18 ar
    21     18     19 ar
    22     19     20 ar
    23     20     21 ar
    24     22      5 1
    25     23      5 1
    26     24      6 1
    27     25      8 1
    28     26     10 1
    29     27     10 1
    30     28     11 1
    31     29     13 1
    32     30     19 1
    33     31     17 1
    34     32     17 1
@<TRIPOS>MOLECULE
nuk-B-DC
30 31 1 0 0
SMALL
NO_CHARGES


@<TRIPOS>ATOM
      1 P         -7.7521     4.4927     0.3738 P.3        1 DC      0.0000
      2 OP1       -8.6258     5.4609     1.1541 O.co2      1 DC      0.0000
      3 OP2       -8.5239     3.4776    -0.3518 O.co2      1 DC      0.0000
      4 O5'       -6.6058     5.1545    -0.6021 O.3        1 DC      0.0000
      5 C5'       -5.6359     6.0481     0.0670 C.3        1 DC      0.0000
      6 C4'       -4.2880     5.8580    -0.5771 C.3        1 DC      0.0000
      7 O4'       -3.4815     4.8748     0.0601 O.3        1 DC      0.0000
      8 C3'       -4.3840     5.4420    -2.0549 C.3        1 DC      0.0000
      9 O3'       -3.3301     5.9455    -2.8662 O.3        1 DC      0.0000
     10 C2'       -4.2075     3.8970    -1.8892 C.3        1 DC      0.0000
     11 C1'       -2.9246     4.0613    -0.9937 C.3        1 DC      0.0000
     12 N1        -2.4057     2.7397    -0.7558 N.am       1 DC      0.0000
     13 C2        -1.0639     2.6043    -0.4386 C.2        1 DC      0.0000
     14 O2        -0.1941     3.4714    -0.2982 O.2        1 DC      0.0000
     15 N3        -0.5757     1.3426    -0.2404 N.2        1 DC      0.0000
     16 C4        -1.3671     0.2330    -0.3564 C.2        1 DC      0.0000
     17 N4        -0.8459    -0.9848    -0.1403 N.pl3      1 DC      0.0000
     18 C5        -2.7419     0.3878    -0.6860 C.2        1 DC      0.0000
     19 C6        -3.1959     1.6319    -0.8777 C.2        1 DC      0.0000
     20 H5'       -5.9536     7.0848    -0.0445 H          1 DC      0.0000
     21 H5''      -5.5749     5.7955     1.1256 H          1 DC      0.0000
     22 H4'       -3.7570     6.8088    -0.5303 H          1 DC      0.0000
     23 H3'       -5.3598     5.6875    -2.4739 H          1 DC      0.0000
     24 H2'       -5.0391     3.4184    -1.3721 H          1 DC      0.0000
     25 H2''      -3.9824     3.4088    -2.8375 H          1 DC      0.0000
     26 H1'       -2.1815     4.6434    -1.5386 H          1 DC      0.0000
     27 H5        -3.3954    -0.4671    -0.7782 H          1 DC      0.0000
     28 H6        -4.2346     1.7664    -1.1410 H          1 DC      0.0000
     29 H41        0.1303    -1.0810     0.1002 H          1 DC      0.0000
     30 H42       -1.4300    -1.8052    -0.2182 H          1 DC      0.0000
@<TRIPOS>BOND
     1      1      2 1
     2      1      3 1
     3      1      4 1
     4      4      5 1
     5      5      6 1
     6      6      7 1
     7      6      8 1
     8      7     11 1
     9      8      9 1
    10      8     10 1
    11     10     11 1
    12     11     12 1
    13     12     13 am
    14     12     19 1
    15     13     14 2
    16     13     15 1
    17     15     16 2
    18     16     17 2
    19     16     18 2
    20     18     19 2
    21     20      5 1
    22     21      5 1
    23     22      6 1
    24     23      8 1
    25     24     10 1
    26     25     10 1
    27     26     11 1
    28     27     18 1
    29     28     19 1
    30     29     17 1
    31     30     17 1
@<TRIPOS>MOLECULE
nuk-B-DG
33 35 1 0 0
SMALL
NO_CHARGES


@<TRIPOS>ATOM
      1 P         -7.9355     2.7379     2.1708 P.3        1 DG      0.0000
      2 OP1       -8.9544     3.3973     3.0421 O.co2      1 DG      0.0000
      3 OP2       -8.2679     1.3494     1.7653 O.co2      1 DG      0.0000
      4 O5'       -7.4537     3.8123     1.0900 O.3        1 DG      0.0000
      5 C5'       -7.2398     5.1827     1.5135 C.3        1 DG      0.0000
      6 C4'       -5.8212     5.5116     1.0658 C.3        1 DG      0.0000
      7 O4'       -4.9713     4.4150     1.3365 O.3        1 DG      0.0000
      8 C3'       -5.6892     5.8375    -0.4220 C.3        1 DG      0.0000
      9 O3'       -5.0983     7.1077    -0.6305 O.3        1 DG      0.0000
     10 C2'       -4.9258     4.6585    -0.9987 C.3        1 DG      0.0000
     11 C1'       -4.1335     4.1617     0.1875 C.3        1 DG      0.0000
     12 N9        -3.8483     2.7296     0.0639 N.ar       1 DG      0.0000
     13 C8        -4.7316     1.6996    -0.0950 C.ar       1 DG      0.0000
     14 N7        -4.1606     0.5223    -0.1730 N.ar       1 DG      0.0000
     15 C5        -2.8028     0.7952    -0.0355 C.ar       1 DG      0.0000
     16 C6        -1.6628    -0.0512    -0.0260 C.2        1 DG      0.0000
     17 O6        -1.6473    -1.2739    -0.1251 O.2        1 DG      0.0000
     18 N1        -0.4719     0.6010     0.1229 N.am       1 DG      0.0000
     19 C2        -0.3989     1.9665     0.2558 C.2        1 DG      0.0000
     20 N2         0.8267     2.4737     0.3915 N.pl3      1 DG      0.0000
     21 N3        -1.4293     2.8183     0.2601 N.2        1 DG      0.0000
     22 C4        -2.6025     2.1575     0.1094 C.ar       1 DG      0.0000
     23 H5'       -7.9575     5.8489     1.0348 H          1 DG      0.0000
     24 H5''      -7.3200     5.2589     2.5978 H          1 DG      0.0000
     25 H4'       -5.4694     6.3695     1.6388 H          1 DG      0.0000
     26 H3'       -6.6870     5.8475    -0.8605 H          1 DG      0.0000
     27 H2'       -5.6073     3.8908    -1.3650 H          1 DG      0.0000
     28 H2''      -4.2574     4.9879    -1.7942 H          1 DG      0.0000
     29 H1'       -3.2021     4.7212     0.2745 H          1 DG      0.0000
     30 H8        -5.8006     1.8420    -0.1511 H          1 DG      0.0000
     31 H1         0.3823     0.0622     0.1358 H          1 DG      0.0000
     32 H21        1.6296     1.8610     0.3924 H          1 DG      0.0000
     33 H22        0.9522     3.4707     0.4933 H          1 DG      0.0000
@<TRIPOS>BOND
     1      1      2 1
     2      1      3 1
     3      1      4 1
     4      4      5 1
     5      5      6 1
     6      6      7 1
     7      6      8 1
     8      7     11 1
     9      8      9 1
    10      8     10 1
    11     10     11 1
    12     11     12 1
    13     12     13 ar
    14     12     22 ar
    15     13     14 ar
    16     14     15 ar
    17     15     16 1
    18     15     22 ar
    19     16     17 2
    20     16     18 am
    21     18     19 1
    22     19     20 2
    23     19     21 2
    24     21     22 1
    25     23      5 1
    26     24      5 1
    27     25      6 1
    28     26      8 1
    29     27     10 1
    30     28     10 1
    31     29     11 1
    32     30     13 1
    33     31     18 1
    34     32     20 1
    35     33     20 1
@<TRIPOS>MOLECULE
nuk-B-DT
32 33 1 0 0
SMALL
NO_CHARGES


@<TRIPOS>ATOM
      1 P         -7.2785     4.4624     2.5659 P.3        1 DT      0.0000
      2 OP1       -8.5669     5.2740     2.7138 O.co2      1 DT      0.0000
      3 OP2       -7.5803     3.1526     1.8960 O.co2      1 DT      0.0000
      4 O5'       -6.1384     5.2856     1.9138 O.3        1 DT      0.0000
      5 C5'       -5.2160     6.0748     2.6652 C.3        1 DT      0.0000
      6 C4'       -3.9224     6.1228     1.9172 C.3        1 DT      0.0000
      7 O4'       -3.1398     4.9609     1.8602 O.3        1 DT      0.0000
      8 C3'       -3.9647     6.6056     0.4512 C.3        1 DT      0.0000
      9 O3'       -2.7189     7.3016     0.3474 O.3        1 DT      0.0000
     10 C2'       -3.9466     5.2748    -0.3126 C.3        1 DT      0.0000
     11 C1'       -2.8161     4.6302     0.4632 C.3        1 DT      0.0000
     12 N1        -2.7177     3.1717     0.3570 N.am       1 DT      0.0000
     13 C2        -1.4147     2.6560     0.3564 C.2        1 DT      0.0000
     14 O2        -0.4348     3.4029     0.3994 O.2        1 DT      0.0000
     15 N3        -1.2843     1.2980     0.3029 N.am       1 DT      0.0000
     16 C4        -2.3545     0.4557     0.2432 C.2        1 DT      0.0000
     17 O4        -2.1289    -0.7903     0.1808 O.2        1 DT      0.0000
     18 C5        -3.6654     1.0056     0.2514 C.2        1 DT      0.0000
     19 C7        -4.8636     0.0814     0.1900 C.3        1 DT      0.0000
     20 C6        -3.7882     2.3345     0.3179 C.2        1 DT      0.0000
     21 H5'       -5.6087     7.0842     2.7874 H          1 DT      0.0000
     22 H5''      -5.0576     5.6217     3.6438 H          1 DT      0.0000
     23 H4'       -3.3118     6.8558     2.4445 H          1 DT      0.0000
     24 H3'       -4.8306     7.2268     0.2225 H          1 DT      0.0000
     25 H2'       -3.7071     5.4035    -1.3681 H          1 DT      0.0000
     26 H2''      -4.8806     4.7286    -0.1810 H          1 DT      0.0000
     27 H1'       -1.8667     5.0874     0.1841 H          1 DT      0.0000
     28 H3        -0.3558     0.9008     0.3078 H          1 DT      0.0000
     29 H6        -4.7799     2.7616     0.3416 H          1 DT      0.0000
     30 H71       -4.5232    -0.9530     0.1412 H          1 DT      0.0000
     31 H72       -5.4545     0.3114    -0.6966 H          1 DT      0.0000
     32 H73       -5.4759     0.2206     1.0809 H          1 DT      0.0000
@<TRIPOS>BOND
     1      1      2 1
     2      1      3 1
     3      1      4 1
     4      4      5 1
     5      5      6 1
     6      6      7 1
     7      6      8 1
     8      7     11 1
     9      8      9 1
    10      8     10 1
    11     10     11 1
    12     11     12 1
    13     12     13 am
    14     12     20 1
    15     13     14 2
    16     13     15 am
    17     15     16 am
    18     16     17 2
    19     16     18 1
    20     18     19 1
    21     18     20 2
    22     21      5 1
    23     22      5 1
    24     23      6 1
    25     24      8 1
    26     25     10 1
    27     26     10 1
    28     27     11 1
    29     28     15 1
    30     29     20 1
    31     30     19 1
    32     31     19 1
    33     32     19 1
