@<TRIPOS>MOLECULE
Mn₄CaO₅-klusteri (OEC)
10 15 1 0 0
SMALL
NO_CHARGES


@<TRIPOS>ATOM
      1 O1         -28.5621    25.6298    13.3325 O.3        1 OEC       0.0000
      2 Ca1        -26.2781    26.5282    13.2112 Ca         1 OEC       0.0000
      3 Mn1        -28.3844    23.9240    13.9669 Mn         1 OEC       0.0000
      4 O2         -26.9254    26.8936    15.5890 O.3        1 OEC       0.0000
      5 Mn2        -28.9452    26.2981    15.2177 Mn         1 OEC       0.0000
      6 O3         -28.3007    24.3652    15.7155 O.3        1 OEC       0.0000
      7 Mn3        -26.4616    25.2540    16.3778 Mn         1 OEC       0.0000
      8 O4         -24.7822    26.2168    16.9807 O.3        1 OEC       0.0000
      9 Mn4        -23.7506    25.2018    15.5085 Mn         1 OEC       0.0000
     10 O5         -25.7701    24.3771    14.3334 O.3        1 OEC       0.0000
@<TRIPOS>BOND
     1     1     2 1
     2     1     3 1
     3     1     5 1
     4     2     4 1
     5     2    10 1
     6     3     6 1
     7     3    10 1
     8     4     5 1
     9     4     7 1
    10     5     6 1
    11     6     7 1
    12     7     8 1
    13     7    10 1
    14     8     9 1
    15     9    10 1
