@<TRIPOS>MOLECULE
pyrroliini-5-karboksylaatti (P5C)
15 15 1 0 0
SMALL
NO_CHARGES


@<TRIPOS>ATOM
      1 O1           2.1835    -1.5183    -0.5439 O.2        1 P5C       0.0000
      2 C1           1.8661    -0.2221    -0.3184 C.2        1 P5C       0.0000
      3 O2           2.7113     0.5308     0.1357 O.2        1 P5C       0.0000
      4 C2           0.4261     0.0849    -0.7065 C.3        1 P5C       0.0000
      5 C3          -0.5630    -0.6890     0.1553 C.3        1 P5C       0.0000
      6 C4          -1.7585     0.2294     0.2204 C.3        1 P5C       0.0000
      7 C5          -1.0797     1.5404     0.0223 C.2        1 P5C       0.0000
      8 N1           0.1140     1.5248    -0.4750 N.2        1 P5C       0.0000
      9 H1           3.1255    -1.5625    -0.2740 H          1 P5C       0.0000
     10 H2           0.2985    -0.1259    -1.7748 H          1 P5C       0.0000
     11 H3          -0.8102    -1.6679    -0.2669 H          1 P5C       0.0000
     12 H4          -0.1624    -0.8584     1.1631 H          1 P5C       0.0000
     13 H5          -2.4710     0.0669    -0.5927 H          1 P5C       0.0000
     14 H6          -2.2740     0.1917     1.1822 H          1 P5C       0.0000
     15 H7          -1.6063     2.4752     0.2649 H          1 P5C       0.0000
@<TRIPOS>BOND
     1     1     2 1
     2     2     3 2
     3     2     4 1
     4     4     5 1
     5     5     6 1
     6     6     7 1
     7     7     8 2
     8     8     4 1
     9     1     9 1
    10     4    10 1
    11     5    11 1
    12     5    12 1
    13     6    13 1
    14     6    14 1
    15     7    15 1
