@<TRIPOS>MOLECULE
palmitiinihappo (PALMITIINIHAPPO)
50 49 1 0 0
SMALL
NO_CHARGES


@<TRIPOS>ATOM
      1 C1          -7.5507     2.1531    -0.0587 C.3        1 PALM      0.0000
      2 C2          -6.6268     0.9580     0.1207 C.3        1 PALM      0.0000
      3 C3          -5.2049     1.4002     0.4682 C.3        1 PALM      0.0000
      4 C4          -4.2596     0.2339     0.7722 C.3        1 PALM      0.0000
      5 C5          -4.0117    -0.6769    -0.4348 C.3        1 PALM      0.0000
      6 C6          -2.9439    -1.7432    -0.1624 C.3        1 PALM      0.0000
      7 C7          -1.5531    -1.4121    -0.7184 C.3        1 PALM      0.0000
      8 C8          -0.9071    -0.1764    -0.0908 C.3        1 PALM      0.0000
      9 C9           0.5033     0.1072    -0.6188 C.3        1 PALM      0.0000
     10 C10          1.5372    -0.9363    -0.1895 C.3        1 PALM      0.0000
     11 C11          2.9452    -0.5392    -0.6423 C.3        1 PALM      0.0000
     12 C12          3.9799    -1.5810    -0.2118 C.3        1 PALM      0.0000
     13 C13          5.3902    -1.2920    -0.7353 C.3        1 PALM      0.0000
     14 C14          6.0015     0.0410    -0.2959 C.3        1 PALM      0.0000
     15 C15          6.1174     0.1846     1.2173 C.3        1 PALM      0.0000
     16 C16          6.8790     1.4278     1.5762 C.2        1 PALM      0.0000
     17 O1           8.0373     1.4816     1.9529 O.2        1 PALM      0.0000
     18 O2           6.1468     2.5482     1.4329 O.2        1 PALM      0.0000
     19 H1          -8.5612     1.8163    -0.3104 H          1 PALM      0.0000
     20 H2          -7.1981     2.8035    -0.8655 H          1 PALM      0.0000
     21 H3          -7.6095     2.7454     0.8600 H          1 PALM      0.0000
     22 H4          -6.6282     0.3732    -0.8053 H          1 PALM      0.0000
     23 H5          -7.0220     0.3144     0.9151 H          1 PALM      0.0000
     24 H6          -4.7932     2.0019    -0.3514 H          1 PALM      0.0000
     25 H7          -5.2381     2.0514     1.3507 H          1 PALM      0.0000
     26 H8          -4.6666    -0.3596     1.6003 H          1 PALM      0.0000
     27 H9          -3.3120     0.6515     1.1278 H          1 PALM      0.0000
     28 H10         -3.7487    -0.0843    -1.3186 H          1 PALM      0.0000
     29 H11         -4.9483    -1.1959    -0.6719 H          1 PALM      0.0000
     30 H12         -2.8771    -1.9640     0.9096 H          1 PALM      0.0000
     31 H13         -3.2670    -2.6738    -0.6470 H          1 PALM      0.0000
     32 H14         -1.6192    -1.2781    -1.8051 H          1 PALM      0.0000
     33 H15         -0.9170    -2.2881    -0.5496 H          1 PALM      0.0000
     34 H16         -1.5218     0.7032    -0.3127 H          1 PALM      0.0000
     35 H17         -0.8774    -0.2828     1.0001 H          1 PALM      0.0000
     36 H18          0.8145     1.0905    -0.2442 H          1 PALM      0.0000
     37 H19          0.4800     0.1797    -1.7130 H          1 PALM      0.0000
     38 H20          1.2868    -1.9132    -0.6172 H          1 PALM      0.0000
     39 H21          1.5203    -1.0439     0.9017 H          1 PALM      0.0000
     40 H22          2.9631    -0.4317    -1.7335 H          1 PALM      0.0000
     41 H23          3.1963     0.4376    -0.2140 H          1 PALM      0.0000
     42 H24          3.6749    -2.5657    -0.5882 H          1 PALM      0.0000
     43 H25          3.9939    -1.6616     0.8812 H          1 PALM      0.0000
     44 H26          5.3747    -1.3215    -1.8319 H          1 PALM      0.0000
     45 H27          6.0513    -2.1072    -0.4156 H          1 PALM      0.0000
     46 H28          5.4234     0.8759    -0.7090 H          1 PALM      0.0000
     47 H29          7.0006     0.1240    -0.7432 H          1 PALM      0.0000
     48 H30          6.6483    -0.6717     1.6488 H          1 PALM      0.0000
     49 H31          5.1366     0.2287     1.7024 H          1 PALM      0.0000
     50 H32          6.7605     3.2676     1.6911 H          1 PALM      0.0000
@<TRIPOS>BOND
     1     1     2 1
     2     2     3 1
     3     3     4 1
     4     4     5 1
     5     5     6 1
     6     6     7 1
     7     7     8 1
     8     8     9 1
     9     9    10 1
    10    10    11 1
    11    11    12 1
    12    12    13 1
    13    13    14 1
    14    14    15 1
    15    15    16 1
    16    16    17 2
    17    16    18 1
    18     1    19 1
    19     1    20 1
    20     1    21 1
    21     2    22 1
    22     2    23 1
    23     3    24 1
    24     3    25 1
    25     4    26 1
    26     4    27 1
    27     5    28 1
    28     5    29 1
    29     6    30 1
    30     6    31 1
    31     7    32 1
    32     7    33 1
    33     8    34 1
    34     8    35 1
    35     9    36 1
    36     9    37 1
    37    10    38 1
    38    10    39 1
    39    11    40 1
    40    11    41 1
    41    12    42 1
    42    12    43 1
    43    13    44 1
    44    13    45 1
    45    14    46 1
    46    14    47 1
    47    15    48 1
    48    15    49 1
    49    18    50 1
