@<TRIPOS>MOLECULE
fosfoenolipyruvaatti (PEP)
12 11 1 0 0
SMALL
NO_CHARGES


@<TRIPOS>ATOM
      1 C1          -0.8036    -0.9194     0.7431 C.2        1 PEP       0.0000
      2 C2          -0.6747     0.1906    -0.0020 C.2        1 PEP       0.0000
      3 O1           0.5731     0.6071    -0.4984 O.2        1 PEP       0.0000
      4 P1           2.0629    -0.0986    -0.3087 P.3        1 PEP       0.0000
      5 O2           2.3413    -0.1201     1.1971 O.2        1 PEP       0.0000
      6 O3           1.9583    -1.4981    -0.9219 O.3        1 PEP      -1.0000
      7 O4           3.0305     0.8086    -1.0736 O.3        1 PEP      -1.0000
      8 C3          -1.9435     1.0543    -0.3344 C.2        1 PEP       0.0000
      9 O5          -3.0533     0.6279     0.1438 O.2        1 PEP       0.0000
     10 O6          -1.7995     2.0990    -1.0402 O.2        1 PEP      -1.0000
     11 H1          -1.7645    -1.2348     1.1220 H          1 PEP       0.0000
     12 H2           0.0728    -1.5165     0.9731 H          1 PEP       0.0000
@<TRIPOS>BOND
     1     1     2 2
     2     2     3 1
     3     3     4 1
     4     4     5 2
     5     4     6 1
     6     4     7 1
     7     2     8 1
     8     8     9 2
     9     8    10 1
    10     1    11 1
    11     1    12 1
