@<TRIPOS>MOLECULE
PLP-metyyli-imiini (PLPMETYYLIIMIINI)
30 30 1 0 0
SMALL
NO_CHARGES


@<TRIPOS>ATOM
      1 C1          -3.2554    -2.9761    -0.7213 C.3        1 PLPM      0.0000
      2 C2          -2.0951    -2.0754    -0.4193 C.ar       1 PLPM      0.0000
      3 N1          -0.8954    -2.5029    -0.8697 N.ar       1 PLPM      0.0000
      4 C3           0.1878    -1.7291    -0.6242 C.ar       1 PLPM      0.0000
      5 C4           0.1605    -0.5185     0.0597 C.ar       1 PLPM      0.0000
      6 C5           1.4274     0.2621     0.2937 C.3        1 PLPM      0.0000
      7 O1           2.5613    -0.3721    -0.2753 O.3        1 PLPM      0.0000
      8 P1           3.9659     0.3507    -0.0407 P.3        1 PLPM      0.0000
      9 O2           4.3447     0.6561     1.3662 O.2        1 PLPM      0.0000
     10 O3           5.0288    -0.5703    -0.7921 O.3        1 PLPM      0.0000
     11 O4           3.9301     1.6465    -0.9708 O.3        1 PLPM      0.0000
     12 C6          -1.0990    -0.0888     0.5176 C.ar       1 PLPM      0.0000
     13 C7          -1.2909     1.1843     1.2623 C.2        1 PLPM      0.0000
     14 N2          -0.3424     2.0406     1.4594 N.2        1 PLPM      0.0000
     15 C8          -0.7802     3.2108     2.2194 C.3        1 PLPM      0.0000
     16 C9          -2.2393    -0.8754     0.2781 C.ar       1 PLPM      0.0000
     17 O5          -3.4575    -0.4408     0.7319 O.2        1 PLPM      0.0000
     18 H1          -3.7267    -3.3137     0.2070 H          1 PLPM      0.0000
     19 H2          -2.9285    -3.8638    -1.2732 H          1 PLPM      0.0000
     20 H3          -3.9936    -2.4522    -1.3363 H          1 PLPM      0.0000
     21 H4           1.1169    -2.1404    -1.0148 H          1 PLPM      0.0000
     22 H5           1.6006     0.3592     1.3705 H          1 PLPM      0.0000
     23 H6           1.3397     1.2469    -0.1752 H          1 PLPM      0.0000
     24 H7           5.9361    -0.3502    -0.5185 H          1 PLPM      0.0000
     25 H8           3.5982     2.4258    -0.4886 H          1 PLPM      0.0000
     26 H9          -2.3053     1.3861     1.6524 H          1 PLPM      0.0000
     27 H10          0.0655     3.8948     2.3390 H          1 PLPM      0.0000
     28 H11         -1.1251     2.9284     3.2197 H          1 PLPM      0.0000
     29 H12         -1.5752     3.7519     1.6949 H          1 PLPM      0.0000
     30 H13         -4.1540    -1.0747     0.4947 H          1 PLPM      0.0000
@<TRIPOS>BOND
     1     1     2 1
     2     2     3 ar
     3     3     4 ar
     4     4     5 ar
     5     5     6 1
     6     6     7 1
     7     7     8 1
     8     8     9 2
     9     8    10 1
    10     8    11 1
    11     5    12 ar
    12    12    13 1
    13    13    14 2
    14    14    15 1
    15    12    16 ar
    16    16    17 1
    17    16     2 ar
    18     1    18 1
    19     1    19 1
    20     1    20 1
    21     4    21 1
    22     6    22 1
    23     6    23 1
    24    10    24 1
    25    11    25 1
    26    13    26 1
    27    15    27 1
    28    15    28 1
    29    15    29 1
    30    17    30 1
