@<TRIPOS>MOLECULE
propionihappoanhydridi (PROPIONIHAPPOANHYDRIDI)
19 18 1 0 0
SMALL
NO_CHARGES


@<TRIPOS>ATOM
      1 C1           3.4539     0.3226    -0.0338 C.3        1 PROP      0.0000
      2 C2           1.9908     0.6074     0.2582 C.3        1 PROP      0.0000
      3 C3           1.0654    -0.0643    -0.7350 C.2        1 PROP      0.0000
      4 O1           1.4499    -0.7363    -1.6785 O.2        1 PROP      0.0000
      5 O2          -0.2144     0.2319    -0.3802 O.2        1 PROP      0.0000
      6 C4          -1.2156    -0.3150    -1.1176 C.2        1 PROP      0.0000
      7 O3          -1.1326    -1.0958    -2.0532 O.2        1 PROP      0.0000
      8 C5          -2.5414     0.1710    -0.5828 C.3        1 PROP      0.0000
      9 C6          -2.9566    -0.6245     0.6384 C.3        1 PROP      0.0000
     10 H1           3.6603    -0.7522     0.0032 H          1 PROP      0.0000
     11 H2           3.7338     0.6834    -1.0291 H          1 PROP      0.0000
     12 H3           4.0932     0.8195     0.7024 H          1 PROP      0.0000
     13 H4           1.7460     0.2425     1.2615 H          1 PROP      0.0000
     14 H5           1.8173     1.6880     0.2172 H          1 PROP      0.0000
     15 H6          -3.2895     0.0698    -1.3770 H          1 PROP      0.0000
     16 H7          -2.4706     1.2401    -0.3541 H          1 PROP      0.0000
     17 H8          -2.2306    -0.5094     1.4500 H          1 PROP      0.0000
     18 H9          -3.0272    -1.6922     0.4053 H          1 PROP      0.0000
     19 H10         -3.9319    -0.2865     1.0013 H          1 PROP      0.0000
@<TRIPOS>BOND
     1     1     2 1
     2     2     3 1
     3     3     4 2
     4     3     5 1
     5     5     6 1
     6     6     7 2
     7     6     8 1
     8     8     9 1
     9     1    10 1
    10     1    11 1
    11     1    12 1
    12     2    13 1
    13     2    14 1
    14     8    15 1
    15     8    16 1
    16     9    17 1
    17     9    18 1
    18     9    19 1
