@<TRIPOS>MOLECULE
propan-2-imiini (PROPAN2IMIINI)
11 10 1 0 0
SMALL
NO_CHARGES


@<TRIPOS>ATOM
      1 C1           0.6526    -1.2609     0.0702 C.3        1 PROP      0.0000
      2 C2           0.3305     0.1922    -0.1393 C.2        1 PROP      0.0000
      3 C3          -1.0619     0.6636     0.1780 C.3        1 PROP      0.0000
      4 N1           1.2424     0.9955    -0.5811 N.2        1 PROP      0.0000
      5 H1           1.6921    -1.4687    -0.1970 H          1 PROP      0.0000
      6 H2           0.4938    -1.5187     1.1207 H          1 PROP      0.0000
      7 H3          -0.0068    -1.8709    -0.5530 H          1 PROP      0.0000
      8 H4          -1.2769     0.4676     1.2319 H          1 PROP      0.0000
      9 H5          -1.1698     1.7339    -0.0150 H          1 PROP      0.0000
     10 H6          -1.7773     0.1155    -0.4410 H          1 PROP      0.0000
     11 H7           0.8812     1.9509    -0.6742 H          1 PROP      0.0000
@<TRIPOS>BOND
     1     1     2 1
     2     2     3 1
     3     2     4 2
     4     1     5 1
     5     1     6 1
     6     1     7 1
     7     3     8 1
     8     3     9 1
     9     3    10 1
    10     4    11 1
