@<TRIPOS>MOLECULE
propen-2-oli (PROPEN2OLI)
10 9 1 0 0
SMALL
NO_CHARGES


@<TRIPOS>ATOM
      1 C1          -0.9190     0.6170    -0.6635 C.3        1 PROP      0.0000
      2 C2          -0.0092    -0.1436     0.2495 C.2        1 PROP      0.0000
      3 O1          -0.6219    -0.6490     1.3743 O.2        1 PROP      0.0000
      4 C3           1.2945    -0.3301     0.0131 C.2        1 PROP      0.0000
      5 H1          -0.3916     1.0002    -1.5431 H          1 PROP      0.0000
      6 H2          -1.3577     1.4696    -0.1353 H          1 PROP      0.0000
      7 H3          -1.7310    -0.0292    -1.0120 H          1 PROP      0.0000
      8 H4           0.0404    -1.1240     1.9043 H          1 PROP      0.0000
      9 H5           1.7635     0.0748    -0.8787 H          1 PROP      0.0000
     10 H6           1.9320    -0.8856     0.6914 H          1 PROP      0.0000
@<TRIPOS>BOND
     1     1     2 1
     2     2     3 1
     3     2     4 2
     4     1     5 1
     5     1     6 1
     6     1     7 1
     7     3     8 1
     8     4     9 1
     9     4    10 1
