@<TRIPOS>MOLECULE
propaani (PROPAANI)
11 10 1 0 0
SMALL
NO_CHARGES


@<TRIPOS>ATOM
      1 C1           1.2583     0.2240    -0.0367 C.3        1 PROP      0.0000
      2 C2          -0.0680    -0.1675     0.5926 C.3        1 PROP      0.0000
      3 C3          -1.2070    -0.0975    -0.4106 C.3        1 PROP      0.0000
      4 H1           1.5117    -0.4445    -0.8657 H          1 PROP      0.0000
      5 H2           2.0616     0.1657     0.7045 H          1 PROP      0.0000
      6 H3           1.2233     1.2487    -0.4201 H          1 PROP      0.0000
      7 H4           0.0041    -1.1851     0.9922 H          1 PROP      0.0000
      8 H5          -0.2827     0.4989     1.4353 H          1 PROP      0.0000
      9 H6          -2.1500    -0.3835     0.0657 H          1 PROP      0.0000
     10 H7          -1.3198     0.9171    -0.8058 H          1 PROP      0.0000
     11 H8          -1.0314    -0.7762    -1.2514 H          1 PROP      0.0000
@<TRIPOS>BOND
     1     1     2 1
     2     2     3 1
     3     1     4 1
     4     1     5 1
     5     1     6 1
     6     2     7 1
     7     2     8 1
     8     3     9 1
     9     3    10 1
    10     3    11 1
