@<TRIPOS>MOLECULE
propionyylifosfaatti (PROPIONYYLIFOSFAATTI)
14 13 1 0 0
SMALL
NO_CHARGES


@<TRIPOS>ATOM
      1 C1          -1.8965    -0.5845     0.5627 C.3        1 PROP      0.0000
      2 C2          -1.2700     0.0758    -0.6494 C.3        1 PROP      0.0000
      3 C3           0.0354     0.7441    -0.2863 C.2        1 PROP      0.0000
      4 O1           0.0806     1.9481    -0.0590 O.2        1 PROP      0.0000
      5 O2           0.9864    -0.1955    -0.2642 O.2        1 PROP      0.0000
      6 P1           2.5507     0.0070     0.0886 P.3        1 PROP      0.0000
      7 O3           3.0644     0.9703    -0.9707 O.2        1 PROP      0.0000
      8 O4           2.5603     0.5182     1.5214 O.3        1 PROP     -1.0000
      9 O5           3.1035    -1.4079    -0.0562 O.3        1 PROP     -1.0000
     10 H1          -1.2468    -1.3689     0.9649 H          1 PROP      0.0000
     11 H2          -2.8564    -1.0379     0.2976 H          1 PROP      0.0000
     12 H3          -2.0693     0.1449     1.3610 H          1 PROP      0.0000
     13 H4          -1.0984    -0.6506    -1.4518 H          1 PROP      0.0000
     14 H5          -1.9440     0.8369    -1.0587 H          1 PROP      0.0000
@<TRIPOS>BOND
     1     1     2 1
     2     2     3 1
     3     3     4 2
     4     3     5 1
     5     5     6 1
     6     6     7 2
     7     6     8 1
     8     6     9 1
     9     1    10 1
    10     1    11 1
    11     1    12 1
    12     2    13 1
    13     2    14 1
