@<TRIPOS>MOLECULE
pyrofosfaatti (PYROFOSFAATTI)
9 8 1 0 0
SMALL
NO_CHARGES


@<TRIPOS>ATOM
      1 O1           1.7160     1.3314     0.6689 O.3        1 PYRO     -1.0000
      2 P1           1.5326     0.2275    -0.3802 P.3        1 PYRO      0.0000
      3 O2           2.5371    -0.9200    -0.1186 O.2        1 PYRO      0.0000
      4 O3           1.7127     0.7408    -1.8178 O.3        1 PYRO     -1.0000
      5 O4           0.0712    -0.4623    -0.2367 O.3        1 PYRO      0.0000
      6 P2          -1.5307    -0.2395    -0.1088 P.3        1 PYRO      0.0000
      7 O5          -2.1423    -1.6441    -0.3264 O.2        1 PYRO      0.0000
      8 O6          -1.8644     0.2439     1.3116 O.3        1 PYRO     -1.0000
      9 O7          -2.0323     0.7222    -1.1936 O.3        1 PYRO     -1.0000
@<TRIPOS>BOND
     1     1     2 1
     2     2     3 2
     3     2     4 1
     4     2     5 1
     5     5     6 1
     6     6     7 2
     7     6     8 1
     8     6     9 1
