@<TRIPOS>MOLECULE
pyruvaatti (PYRUVAATTI)
9 8 1 0 0
SMALL
NO_CHARGES


@<TRIPOS>ATOM
      1 C1          -1.1496    -0.2222     0.0092 C.3        1 PYRU      0.0000
      2 C2           0.1475     0.3571    -0.4729 C.2        1 PYRU      0.0000
      3 O1           0.2307     1.0704    -1.4745 O.2        1 PYRU      0.0000
      4 C3           1.4208     0.0435     0.3204 C.2        1 PYRU      0.0000
      5 O2           1.2490    -0.6997     1.3409 O.2        1 PYRU      0.0000
      6 O3           2.5206     0.5330    -0.0859 O.2        1 PYRU     -1.0000
      7 H1          -1.3666     0.1414     1.0167 H          1 PYRU      0.0000
      8 H2          -1.0935    -1.3136     0.0032 H          1 PYRU      0.0000
      9 H3          -1.9588     0.0901    -0.6571 H          1 PYRU      0.0000
@<TRIPOS>BOND
     1     1     2 1
     2     2     3 2
     3     2     4 1
     4     4     5 2
     5     4     6 1
     6     1     7 1
     7     1     8 1
     8     1     9 1
