@<TRIPOS>MOLECULE
S-asetyylikysteamiini (SASETYYLIKYSTEAMIINI)
16 15 1 0 0
SMALL
NO_CHARGES


@<TRIPOS>ATOM
      1 C1          -2.4767     1.2092    -1.7138 C.3        1 SASE      0.0000
      2 C2          -1.7254     0.1915    -0.9047 C.2        1 SASE      0.0000
      3 O1          -2.2539    -0.7907    -0.3989 O.2        1 SASE      0.0000
      4 S1          -0.0057     0.5252    -0.7497 S.3        1 SASE      0.0000
      5 C3           0.4492    -0.8211     0.3911 C.3        1 SASE      0.0000
      6 C4           1.9327    -0.7786     0.7818 C.3        1 SASE      0.0000
      7 N1           2.2947     0.3917     1.5830 N.3        1 SASE      0.0000
      8 H1          -2.3958     2.1965    -1.2506 H          1 SASE      0.0000
      9 H2          -2.0921     1.2381    -2.7370 H          1 SASE      0.0000
     10 H3          -3.5345     0.9318    -1.7501 H          1 SASE      0.0000
     11 H4          -0.1733    -0.7608     1.2910 H          1 SASE      0.0000
     12 H5           0.2410    -1.7776    -0.1004 H          1 SASE      0.0000
     13 H6           2.1638    -1.6768     1.3661 H          1 SASE      0.0000
     14 H7           2.5631    -0.8112    -0.1142 H          1 SASE      0.0000
     15 H8           1.7424     0.4121     2.4389 H          1 SASE      0.0000
     16 H9           3.2705     0.3208     1.8674 H          1 SASE      0.0000
@<TRIPOS>BOND
     1     1     2 1
     2     2     3 2
     3     2     4 1
     4     4     5 1
     5     5     6 1
     6     6     7 1
     7     1     8 1
     8     1     9 1
     9     1    10 1
    10     5    11 1
    11     5    12 1
    12     6    13 1
    13     6    14 1
    14     7    15 1
    15     7    16 1
