@<TRIPOS>MOLECULE
seriini (SERIINI)
14 13 1 0 0
SMALL
NO_CHARGES


@<TRIPOS>ATOM
      1 N1          -0.5371     1.2090    -1.0391 N.3        1 SERI      0.0000
      2 C1           0.2470     0.5652     0.0430 C.3        1 SERI      0.0000
      3 C2          -0.6443    -0.0883     1.1076 C.3        1 SERI      0.0000
      4 O1          -1.6322    -0.9433     0.5324 O.3        1 SERI      0.0000
      5 C3           1.1944    -0.4818    -0.5445 C.2        1 SERI      0.0000
      6 O2           1.1133    -1.0069    -1.6452 O.2        1 SERI      0.0000
      7 O3           2.1988    -0.8118     0.2942 O.2        1 SERI      0.0000
      8 H1          -1.3790     1.6412    -0.6686 H          1 SERI      0.0000
      9 H2          -0.8086     0.4929    -1.7171 H          1 SERI      0.0000
     10 H3           0.8655     1.3422     0.5064 H          1 SERI      0.0000
     11 H4          -1.1718     0.6803     1.6831 H          1 SERI      0.0000
     12 H5          -0.0559    -0.6871     1.8101 H          1 SERI      0.0000
     13 H6          -2.1007    -0.4337    -0.1501 H          1 SERI      0.0000
     14 H7           2.7106    -1.4780    -0.2122 H          1 SERI      0.0000
@<TRIPOS>BOND
     1     1     2 1
     2     2     3 1
     3     3     4 1
     4     2     5 1
     5     5     6 2
     6     5     7 1
     7     1     8 1
     8     1     9 1
     9     2    10 1
    10     3    11 1
    11     3    12 1
    12     4    13 1
    13     7    14 1
