@<TRIPOS>MOLECULE
tetrahydrofuraani (TETRAHYDROFURAANI)
13 13 1 0 0
SMALL
NO_CHARGES


@<TRIPOS>ATOM
      1 C1          -0.9238     0.3187    -0.4111 C.3        1 TETR      0.0000
      2 C2          -0.3274    -1.0082    -0.0174 C.3        1 TETR      0.0000
      3 C3           1.1495    -0.6828     0.0348 C.3        1 TETR      0.0000
      4 O1           1.2561     0.6922     0.4302 O.3        1 TETR      0.0000
      5 C4          -0.0444     1.2918     0.3437 C.3        1 TETR      0.0000
      6 H1          -1.9833     0.4175    -0.1612 H          1 TETR      0.0000
      7 H2          -0.8091     0.4709    -1.4909 H          1 TETR      0.0000
      8 H3          -0.6831    -1.2933     0.9798 H          1 TETR      0.0000
      9 H4          -0.5620    -1.8202    -0.7106 H          1 TETR      0.0000
     10 H5           1.6949    -1.3138     0.7421 H          1 TETR      0.0000
     11 H6           1.6127    -0.7829    -0.9526 H          1 TETR      0.0000
     12 H7           0.0293     2.2640    -0.1516 H          1 TETR      0.0000
     13 H8          -0.4094     1.4460     1.3648 H          1 TETR      0.0000
@<TRIPOS>BOND
     1     1     2 1
     2     2     3 1
     3     3     4 1
     4     4     5 1
     5     5     1 1
     6     1     6 1
     7     1     7 1
     8     2     8 1
     9     2     9 1
    10     3    10 1
    11     3    11 1
    12     5    12 1
    13     5    13 1
