@<TRIPOS>MOLECULE
tolueeni (TOLUEENI)
15 15 1 0 0
SMALL
NO_CHARGES


@<TRIPOS>ATOM
      1 C1          -2.2198     0.0551     0.0600 C.3        1 TOLU      0.0000
      2 C2          -0.7219     0.0151    -0.0052 C.ar       1 TOLU      0.0000
      3 C3          -0.0382    -1.1997     0.1280 C.ar       1 TOLU      0.0000
      4 C4           1.3571    -1.2327     0.0989 C.ar       1 TOLU      0.0000
      5 C5           2.0804    -0.0512    -0.0530 C.ar       1 TOLU      0.0000
      6 C6           1.4092     1.1643    -0.1716 C.ar       1 TOLU      0.0000
      7 C7           0.0140     1.1986    -0.1426 C.ar       1 TOLU      0.0000
      8 H1          -2.5460     0.1792     1.0971 H          1 TOLU      0.0000
      9 H2          -2.6148     0.8836    -0.5372 H          1 TOLU      0.0000
     10 H3          -2.6529    -0.8680    -0.3396 H          1 TOLU      0.0000
     11 H4          -0.5892    -2.1288     0.2546 H          1 TOLU      0.0000
     12 H5           1.8794    -2.1806     0.1977 H          1 TOLU      0.0000
     13 H6           3.1665    -0.0773    -0.0747 H          1 TOLU      0.0000
     14 H7           1.9722     2.0870    -0.2838 H          1 TOLU      0.0000
     15 H8          -0.4960     2.1553    -0.2288 H          1 TOLU      0.0000
@<TRIPOS>BOND
     1     1     2 1
     2     2     3 ar
     3     3     4 ar
     4     4     5 ar
     5     5     6 ar
     6     6     7 ar
     7     7     2 ar
     8     1     8 1
     9     1     9 1
    10     1    10 1
    11     3    11 1
    12     4    12 1
    13     5    13 1
    14     6    14 1
    15     7    15 1
