@<TRIPOS>MOLECULE
tributyriini (TRIBUTYRIINI)
47 46 1 0 0
SMALL
NO_CHARGES


@<TRIPOS>ATOM
      1 C1           3.6432    -1.5201     2.9475 C.3        1 TRIB      0.0000
      2 C2           2.2462    -2.0447     2.6452 C.3        1 TRIB      0.0000
      3 C3           1.8516    -1.8586     1.1811 C.3        1 TRIB      0.0000
      4 C4           1.5398    -0.4234     0.8245 C.2        1 TRIB      0.0000
      5 O1           1.4191     0.4996     1.6160 O.2        1 TRIB      0.0000
      6 O2           1.3873    -0.3162    -0.5287 O.2        1 TRIB      0.0000
      7 C5           1.0265     0.9938    -0.9974 C.3        1 TRIB      0.0000
      8 C6          -0.4854     1.2501    -0.8943 C.3        1 TRIB      0.0000
      9 C7          -1.2765     0.5548    -2.0198 C.3        1 TRIB      0.0000
     10 O3          -0.8615    -0.7890    -2.3055 O.2        1 TRIB      0.0000
     11 C8          -1.2269    -1.7351    -1.3962 C.2        1 TRIB      0.0000
     12 O4          -1.8253    -1.5136    -0.3547 O.2        1 TRIB      0.0000
     13 C9          -0.7464    -3.0885    -1.8640 C.3        1 TRIB      0.0000
     14 C10         -1.2258    -4.2121    -0.9483 C.3        1 TRIB      0.0000
     15 C11         -0.7259    -5.5670    -1.4214 C.3        1 TRIB      0.0000
     16 O5          -0.6742     2.6831    -0.9890 O.2        1 TRIB      0.0000
     17 C12         -1.8429     3.1709    -0.4931 C.2        1 TRIB      0.0000
     18 O6          -2.7634     2.4921    -0.0623 O.2        1 TRIB      0.0000
     19 C13         -1.8741     4.6762    -0.5859 C.3        1 TRIB      0.0000
     20 C14         -0.7627     5.3458     0.2167 C.3        1 TRIB      0.0000
     21 C15         -0.9230     5.1476     1.7171 C.3        1 TRIB      0.0000
     22 H1           4.3936    -2.0283     2.3332 H          1 TRIB      0.0000
     23 H2           3.8924    -1.6972     3.9986 H          1 TRIB      0.0000
     24 H3           3.7189    -0.4447     2.7606 H          1 TRIB      0.0000
     25 H4           1.5214    -1.5535     3.3044 H          1 TRIB      0.0000
     26 H5           2.2206    -3.1150     2.8823 H          1 TRIB      0.0000
     27 H6           0.9477    -2.4447     0.9813 H          1 TRIB      0.0000
     28 H7           2.6537    -2.2218     0.5289 H          1 TRIB      0.0000
     29 H8           1.5969     1.7625    -0.4597 H          1 TRIB      0.0000
     30 H9           1.3534     1.0704    -2.0414 H          1 TRIB      0.0000
     31 H10         -0.8358     0.8940     0.0818 H          1 TRIB      0.0000
     32 H11         -1.1499     1.1211    -2.9502 H          1 TRIB      0.0000
     33 H12         -2.3546     0.5744    -1.8185 H          1 TRIB      0.0000
     34 H13         -1.1257    -3.2559    -2.8792 H          1 TRIB      0.0000
     35 H14          0.3492    -3.0694    -1.8906 H          1 TRIB      0.0000
     36 H15         -2.3218    -4.2219    -0.9120 H          1 TRIB      0.0000
     37 H16         -0.8778    -4.0369     0.0768 H          1 TRIB      0.0000
     38 H17         -1.0834    -6.3572    -0.7536 H          1 TRIB      0.0000
     39 H18          0.3685    -5.5993    -1.4309 H          1 TRIB      0.0000
     40 H19         -1.0853    -5.7871    -2.4320 H          1 TRIB      0.0000
     41 H20         -2.8540     5.0231    -0.2383 H          1 TRIB      0.0000
     42 H21         -1.7980     4.9482    -1.6448 H          1 TRIB      0.0000
     43 H22          0.2180     4.9673    -0.0924 H          1 TRIB      0.0000
     44 H23         -0.7714     6.4207     0.0019 H          1 TRIB      0.0000
     45 H24         -0.8633     4.0889     1.9887 H          1 TRIB      0.0000
     46 H25         -1.8839     5.5398     2.0638 H          1 TRIB      0.0000
     47 H26         -0.1287     5.6766     2.2537 H          1 TRIB      0.0000
@<TRIPOS>BOND
     1     1     2 1
     2     2     3 1
     3     3     4 1
     4     4     5 2
     5     4     6 1
     6     6     7 1
     7     7     8 1
     8     8     9 1
     9     9    10 1
    10    10    11 1
    11    11    12 2
    12    11    13 1
    13    13    14 1
    14    14    15 1
    15     8    16 1
    16    16    17 1
    17    17    18 2
    18    17    19 1
    19    19    20 1
    20    20    21 1
    21     1    22 1
    22     1    23 1
    23     1    24 1
    24     2    25 1
    25     2    26 1
    26     3    27 1
    27     3    28 1
    28     7    29 1
    29     7    30 1
    30     8    31 1
    31     9    32 1
    32     9    33 1
    33    13    34 1
    34    13    35 1
    35    14    36 1
    36    14    37 1
    37    15    38 1
    38    15    39 1
    39    15    40 1
    40    19    41 1
    41    19    42 1
    42    20    43 1
    43    20    44 1
    44    21    45 1
    45    21    46 1
    46    21    47 1
