@<TRIPOS>MOLECULE
tymiini (TYMIINI)
15 15 1 0 0
SMALL
NO_CHARGES


@<TRIPOS>ATOM
      1 C1          -2.2219     0.0217     0.1408 C.3        1 TYMI      0.0000
      2 C2          -0.7327     0.0687     0.0540 C.2        1 TYMI      0.0000
      3 C3          -0.0008     1.1861     0.1459 C.2        1 TYMI      0.0000
      4 N1           1.3622     1.1533     0.0571 N.2        1 TYMI      0.0000
      5 C4           2.0833     0.0061    -0.1288 C.2        1 TYMI      0.0000
      6 O1           3.3071     0.0135    -0.2040 O.2        1 TYMI      0.0000
      7 N2           1.3498    -1.1408    -0.2242 N.2        1 TYMI      0.0000
      8 C5          -0.0133    -1.2180    -0.1490 C.2        1 TYMI      0.0000
      9 O2          -0.6112    -2.2846    -0.2431 O.2        1 TYMI      0.0000
     10 H1          -2.6477    -0.3888    -0.7805 H          1 TYMI      0.0000
     11 H2          -2.5381    -0.6054     0.9808 H          1 TYMI      0.0000
     12 H3          -2.6507     1.0183     0.2901 H          1 TYMI      0.0000
     13 H4          -0.4474     2.1646     0.2941 H          1 TYMI      0.0000
     14 H5           1.9055     2.0063     0.1283 H          1 TYMI      0.0000
     15 H6           1.8558    -2.0009    -0.3615 H          1 TYMI      0.0000
@<TRIPOS>BOND
     1     1     2 1
     2     2     3 2
     3     3     4 1
     4     4     5 1
     5     5     6 2
     6     5     7 1
     7     7     8 1
     8     8     9 2
     9     8     2 1
    10     1    10 1
    11     1    11 1
    12     1    12 1
    13     3    13 1
    14     4    14 1
    15     7    15 1
