@<TRIPOS>MOLECULE
tyrosiini (TYROSIINI)
24 24 1 0 0
SMALL
NO_CHARGES


@<TRIPOS>ATOM
      1 N1          -3.2729    -1.2256     0.3800 N.3        1 TYRO      0.0000
      2 C1          -1.9004    -0.6780     0.5081 C.3        1 TYRO      0.0000
      3 C2          -1.1697    -0.6981    -0.8450 C.3        1 TYRO      0.0000
      4 C3           0.2865    -0.3062    -0.7429 C.ar       1 TYRO      0.0000
      5 C4           1.2359    -1.2186    -0.2617 C.ar       1 TYRO      0.0000
      6 C5           2.5775    -0.8496    -0.1552 C.ar       1 TYRO      0.0000
      7 C6           2.9724     0.4294    -0.5268 C.ar       1 TYRO      0.0000
      8 O1           4.2930     0.7467    -0.4065 O.2        1 TYRO      0.0000
      9 C7           2.0462     1.3504    -1.0041 C.ar       1 TYRO      0.0000
     10 C8           0.7033     0.9818    -1.1110 C.ar       1 TYRO      0.0000
     11 C9          -1.9928     0.7596     1.0228 C.2        1 TYRO      0.0000
     12 O2          -2.5708     1.6857     0.4710 O.2        1 TYRO      0.0000
     13 O3          -1.3652     0.9473     2.2007 O.2        1 TYRO      0.0000
     14 H1          -3.2383    -2.1246    -0.0973 H          1 TYRO      0.0000
     15 H2          -3.8171    -0.6011    -0.2193 H          1 TYRO      0.0000
     16 H3          -1.3644    -1.2871     1.2448 H          1 TYRO      0.0000
     17 H4          -1.2180    -1.7048    -1.2820 H          1 TYRO      0.0000
     18 H5          -1.6748    -0.0395    -1.5646 H          1 TYRO      0.0000
     19 H6           0.9397    -2.2226     0.0335 H          1 TYRO      0.0000
     20 H7           3.3122    -1.5576     0.2174 H          1 TYRO      0.0000
     21 H8           4.4185     1.6627    -0.7032 H          1 TYRO      0.0000
     22 H9           2.3460     2.3520    -1.2951 H          1 TYRO      0.0000
     23 H10         -0.0173     1.7089    -1.4815 H          1 TYRO      0.0000
     24 H11         -1.5296     1.8889     2.4120 H          1 TYRO      0.0000
@<TRIPOS>BOND
     1     1     2 1
     2     2     3 1
     3     3     4 1
     4     4     5 ar
     5     5     6 ar
     6     6     7 ar
     7     7     8 1
     8     7     9 ar
     9     9    10 ar
    10     2    11 1
    11    11    12 2
    12    11    13 1
    13    10     4 ar
    14     1    14 1
    15     1    15 1
    16     2    16 1
    17     3    17 1
    18     3    18 1
    19     5    19 1
    20     6    20 1
    21     8    21 1
    22     9    22 1
    23    10    23 1
    24    13    24 1
